data_FAPYEA_clean
_audit_creation_date              2014-07-02
_audit_creation_method            'Materials Studio'
_symmetry_space_group_name_H-M    'P1'
_symmetry_Int_Tables_number       1
_symmetry_cell_setting            triclinic
loop_
_symmetry_equiv_pos_as_xyz
  x,y,z
_cell_length_a                    3.8810
_cell_length_b                    15.4061
_cell_length_c                    15.4061
_cell_angle_alpha                 89.0910
_cell_angle_beta                  82.7643
_cell_angle_gamma                 82.7640
loop_
_atom_site_label
_atom_site_type_symbol
_atom_site_fract_x
_atom_site_fract_y
_atom_site_fract_z
_atom_site_U_iso_or_equiv
_atom_site_adp_type
_atom_site_occupancy
Cu1    Cu    0.75000   0.50000   0.50000   0.01267  Uiso   1.00
Cu2    Cu    0.00000   0.00000   0.00000   0.01267  Uiso   1.00
H1     H     0.15520   0.19760   0.11200   0.01267  Uiso   1.00
H2     H     0.58300   0.29430   0.38670   0.01267  Uiso   1.00
H3     H     0.83470   0.17810   0.44910   0.01267  Uiso   1.00
H4     H     0.00850   0.08860   0.40740   0.01267  Uiso   1.00
H5     H     0.24270   0.15990   0.42730   0.01267  Uiso   1.00
H6     H     0.82910   0.32020   0.02800   0.01267  Uiso   1.00
H7     H     0.51250   0.36730   0.09030   0.01267  Uiso   1.00
H8     H     0.89350   0.38780   0.09740   0.01267  Uiso   1.00
H9     H     0.46480   0.80240   0.88800   0.01267  Uiso   1.00
H10    H     0.26400   0.70570   0.61330   0.01267  Uiso   1.00
H11    H     0.46190   0.82190   0.55090   0.01267  Uiso   1.00
H12    H     0.50450   0.91140   0.59260   0.01267  Uiso   1.00
H13    H     0.82990   0.84010   0.57270   0.01267  Uiso   1.00
H14    H     0.17730   0.67980   0.97200   0.01267  Uiso   1.00
H15    H     0.97010   0.63270   0.90970   0.01267  Uiso   1.00
H16    H     0.37870   0.61220   0.90260   0.01267  Uiso   1.00
H17    H     0.01720   0.38800   0.69760   0.01267  Uiso   1.00
H18    H     0.71970   0.11330   0.79430   0.01267  Uiso   1.00
H19    H     0.03380   0.05090   0.67810   0.01267  Uiso   1.00
H20    H     0.16590   0.09260   0.58860   0.01267  Uiso   1.00
H21    H     0.42000   0.07270   0.65990   0.01267  Uiso   1.00
H22    H     0.60710   0.47200   0.82020   0.01267  Uiso   1.00
H23    H     0.35280   0.40970   0.86730   0.01267  Uiso   1.00
H24    H     0.74090   0.40260   0.88780   0.01267  Uiso   1.00
H25    H     0.10280   0.61200   0.30240   0.01267  Uiso   1.00
H26    H     0.62730   0.88670   0.20570   0.01267  Uiso   1.00
H27    H     0.76280   0.94910   0.32190   0.01267  Uiso   1.00
H28    H     0.84710   0.90740   0.41140   0.01267  Uiso   1.00
H29    H     0.15260   0.92730   0.34010   0.01267  Uiso   1.00
H30    H     0.89930   0.52800   0.17980   0.01267  Uiso   1.00
H31    H     0.62980   0.59030   0.13270   0.01267  Uiso   1.00
H32    H     0.03130   0.59740   0.11220   0.01267  Uiso   1.00
C1     C     0.11410   0.17440   0.24440   0.01267  Uiso   1.00
C2     C     0.04440   0.21960   0.16800   0.01267  Uiso   1.00
C3     C     0.80490   0.29730   0.17250   0.01267  Uiso   1.00
C4     C     0.63140   0.32780   0.25380   0.01267  Uiso   1.00
C5     C     0.71110   0.27530   0.33150   0.01267  Uiso   1.00
C6     C     0.93310   0.20590   0.33090   0.01267  Uiso   1.00
C7     C     0.02350   0.15020   0.40880   0.01267  Uiso   1.00
C8     C     0.75440   0.34300   0.08600   0.01267  Uiso   1.00
C9     C     0.51530   0.07090   0.17030   0.01267  Uiso   1.00
C10    C     0.22220   0.42910   0.33210   0.01267  Uiso   1.00
C11    C     0.53290   0.82560   0.75560   0.01267  Uiso   1.00
C12    C     0.43200   0.78040   0.83200   0.01267  Uiso   1.00
C13    C     0.27470   0.70270   0.82750   0.01267  Uiso   1.00
C14    C     0.21300   0.67220   0.74620   0.01267  Uiso   1.00
C15    C     0.31790   0.72470   0.66850   0.01267  Uiso   1.00
C16    C     0.46990   0.79410   0.66910   0.01267  Uiso   1.00
C17    C     0.58250   0.84980   0.59120   0.01267  Uiso   1.00
C18    C     0.18340   0.65700   0.91400   0.01267  Uiso   1.00
C19    C     0.75650   0.92910   0.82970   0.01267  Uiso   1.00
C20    C     0.98340   0.57090   0.66790   0.01267  Uiso   1.00
C21    C     0.10850   0.25560   0.67440   0.01267  Uiso   1.00
C22    C     0.96240   0.33200   0.71960   0.01267  Uiso   1.00
C23    C     0.72740   0.32750   0.79730   0.01267  Uiso   1.00
C24    C     0.63520   0.24620   0.82780   0.01267  Uiso   1.00
C25    C     0.79260   0.16850   0.77530   0.01267  Uiso   1.00
C26    C     0.01400   0.16910   0.70590   0.01267  Uiso   1.00
C27    C     0.18230   0.09120   0.65020   0.01267  Uiso   1.00
C28    C     0.59040   0.41400   0.84300   0.01267  Uiso   1.00
C29    C     0.43560   0.32970   0.57090   0.01267  Uiso   1.00
C30    C     0.30430   0.16790   0.92910   0.01267  Uiso   1.00
C31    C     0.03850   0.74440   0.32560   0.01267  Uiso   1.00
C32    C     0.01400   0.66800   0.28040   0.01267  Uiso   1.00
C33    C     0.85220   0.67250   0.20270   0.01267  Uiso   1.00
C34    C     0.70920   0.75380   0.17220   0.01267  Uiso   1.00
C35    C     0.73640   0.83150   0.22470   0.01267  Uiso   1.00
C36    C     0.88900   0.83090   0.29410   0.01267  Uiso   1.00
C37    C     0.92370   0.90880   0.34980   0.01267  Uiso   1.00
C38    C     0.84740   0.58600   0.15700   0.01267  Uiso   1.00
C39    C     0.33620   0.67030   0.42910   0.01267  Uiso   1.00
C40    C     0.40130   0.83210   0.07090   0.01267  Uiso   1.00
N1     N     0.34460   0.10080   0.24320   0.01267  Uiso   1.00
N2     N     0.68390   0.03560   0.10860   0.01267  Uiso   1.00
N3     N     0.39910   0.39860   0.25500   0.01267  Uiso   1.00
N4     N     0.05560   0.46030   0.39190   0.01267  Uiso   1.00
N5     N     0.68860   0.89920   0.75680   0.01267  Uiso   1.00
N6     N     0.82810   0.96440   0.89140   0.01267  Uiso   1.00
N7     N     0.05270   0.60140   0.74500   0.01267  Uiso   1.00
N8     N     0.90780   0.53970   0.60810   0.01267  Uiso   1.00
N9     N     0.33780   0.25680   0.60080   0.01267  Uiso   1.00
N10    N     0.54250   0.39140   0.53560   0.01267  Uiso   1.00
N11    N     0.40410   0.24500   0.89860   0.01267  Uiso   1.00
N12    N     0.19750   0.10810   0.96030   0.01267  Uiso   1.00
N13    N     0.19540   0.74320   0.39920   0.01267  Uiso   1.00
N14    N     0.46950   0.60860   0.46440   0.01267  Uiso   1.00
N15    N     0.54770   0.75500   0.10140   0.01267  Uiso   1.00
N16    N     0.26590   0.89190   0.03970   0.01267  Uiso   1.00
