data_KEYFIF01_clean
_audit_creation_date              2014-07-02
_audit_creation_method            'Materials Studio'
_symmetry_space_group_name_H-M    'P1'
_symmetry_Int_Tables_number       1
_symmetry_cell_setting            triclinic
loop_
_symmetry_equiv_pos_as_xyz
  x,y,z
_cell_length_a                    6.9462
_cell_length_b                    15.7508
_cell_length_c                    15.7508
_cell_angle_alpha                 62.1223
_cell_angle_beta                  81.5468
_cell_angle_gamma                 98.4532
loop_
_atom_site_label
_atom_site_type_symbol
_atom_site_fract_x
_atom_site_fract_y
_atom_site_fract_z
_atom_site_U_iso_or_equiv
_atom_site_adp_type
_atom_site_occupancy
Cu1    Cu    0.95995   0.09808   0.43205   0.01267  Uiso   1.00
Cu2    Cu    0.39200   0.43205   0.46987   0.01267  Uiso   1.00
Cu3    Cu    0.86187   0.46987   0.09808   0.01267  Uiso   1.00
Cu4    Cu    0.04005   0.90192   0.56795   0.01267  Uiso   1.00
Cu5    Cu    0.60800   0.56795   0.53013   0.01267  Uiso   1.00
Cu6    Cu    0.13813   0.53013   0.90192   0.01267  Uiso   1.00
H1     H     0.75120   0.87230   0.75440   0.01267  Uiso   1.00
H2     H     0.46610   0.84640   0.86620   0.01267  Uiso   1.00
H3     H     0.22300   0.93150   0.81570   0.01267  Uiso   1.00
H4     H     0.27270   0.04800   0.65200   0.01267  Uiso   1.00
H5     H     0.45500   0.13870   0.48950   0.01267  Uiso   1.00
H6     H     0.69570   0.28270   0.34070   0.01267  Uiso   1.00
H7     H     0.61750   0.20720   0.30720   0.01267  Uiso   1.00
H8     H     0.50560   0.75440   0.37330   0.01267  Uiso   1.00
H9     H     0.33230   0.86620   0.28740   0.01267  Uiso   1.00
H10    H     0.03870   0.81570   0.25280   0.01267  Uiso   1.00
H11    H     0.92470   0.65200   0.30000   0.01267  Uiso   1.00
H12    H     0.94450   0.48950   0.37180   0.01267  Uiso   1.00
H13    H     0.03640   0.34070   0.37660   0.01267  Uiso   1.00
H14    H     0.92470   0.30720   0.48560   0.01267  Uiso   1.00
H15    H     0.87890   0.37330   0.87230   0.01267  Uiso   1.00
H16    H     0.61970   0.28740   0.84640   0.01267  Uiso   1.00
H17    H     0.29150   0.25280   0.93150   0.01267  Uiso   1.00
H18    H     0.22470   0.30000   0.04800   0.01267  Uiso   1.00
H19    H     0.31630   0.37180   0.13870   0.01267  Uiso   1.00
H20    H     0.41300   0.37660   0.28270   0.01267  Uiso   1.00
H21    H     0.41030   0.48560   0.20720   0.01267  Uiso   1.00
H22    H     0.24880   0.12770   0.24560   0.01267  Uiso   1.00
H23    H     0.53390   0.15360   0.13380   0.01267  Uiso   1.00
H24    H     0.77700   0.06850   0.18430   0.01267  Uiso   1.00
H25    H     0.72730   0.95200   0.34800   0.01267  Uiso   1.00
H26    H     0.54500   0.86130   0.51050   0.01267  Uiso   1.00
H27    H     0.30430   0.71730   0.65930   0.01267  Uiso   1.00
H28    H     0.38250   0.79280   0.69280   0.01267  Uiso   1.00
H29    H     0.49440   0.24560   0.62670   0.01267  Uiso   1.00
H30    H     0.66770   0.13380   0.71260   0.01267  Uiso   1.00
H31    H     0.96130   0.18430   0.74720   0.01267  Uiso   1.00
H32    H     0.07530   0.34800   0.70000   0.01267  Uiso   1.00
H33    H     0.05550   0.51050   0.62820   0.01267  Uiso   1.00
H34    H     0.96360   0.65930   0.62340   0.01267  Uiso   1.00
H35    H     0.07530   0.69280   0.51440   0.01267  Uiso   1.00
H36    H     0.12110   0.62670   0.12770   0.01267  Uiso   1.00
H37    H     0.38030   0.71260   0.15360   0.01267  Uiso   1.00
H38    H     0.70850   0.74720   0.06850   0.01267  Uiso   1.00
H39    H     0.77530   0.70000   0.95200   0.01267  Uiso   1.00
H40    H     0.68370   0.62820   0.86130   0.01267  Uiso   1.00
H41    H     0.58700   0.62340   0.71730   0.01267  Uiso   1.00
H42    H     0.58970   0.51440   0.79280   0.01267  Uiso   1.00
C1     C     0.54440   0.03159   0.60109   0.01267  Uiso   1.00
C2     C     0.68818   0.97559   0.63035   0.01267  Uiso   1.00
C3     C     0.65561   0.90746   0.73223   0.01267  Uiso   1.00
C4     C     0.48433   0.89212   0.79963   0.01267  Uiso   1.00
C5     C     0.33935   0.94367   0.76982   0.01267  Uiso   1.00
C6     C     0.36915   0.01279   0.67214   0.01267  Uiso   1.00
C7     C     0.56363   0.11054   0.50205   0.01267  Uiso   1.00
C8     C     0.72160   0.22712   0.33372   0.01267  Uiso   1.00
C9     C     0.92514   0.25794   0.26332   0.01267  Uiso   1.00
C10    C     0.14549   0.60109   0.36732   0.01267  Uiso   1.00
C11    C     0.31853   0.63035   0.39406   0.01267  Uiso   1.00
C12    C     0.38784   0.73223   0.36031   0.01267  Uiso   1.00
C13    C     0.28396   0.79963   0.30825   0.01267  Uiso   1.00
C14    C     0.10917   0.76982   0.28651   0.01267  Uiso   1.00
C15    C     0.04129   0.67214   0.31507   0.01267  Uiso   1.00
C16    C     0.06568   0.50205   0.38741   0.01267  Uiso   1.00
C17    C     0.05532   0.33372   0.43916   0.01267  Uiso   1.00
C18    C     0.18846   0.26332   0.47874   0.01267  Uiso   1.00
C19    C     0.51281   0.36732   0.03159   0.01267  Uiso   1.00
C20    C     0.71259   0.39406   0.97559   0.01267  Uiso   1.00
C21    C     0.74815   0.36031   0.90746   0.01267  Uiso   1.00
C22    C     0.59221   0.30825   0.89212   0.01267  Uiso   1.00
C23    C     0.39568   0.28651   0.94367   0.01267  Uiso   1.00
C24    C     0.35636   0.31507   0.01279   0.01267  Uiso   1.00
C25    C     0.45309   0.38741   0.11054   0.01267  Uiso   1.00
C26    C     0.49448   0.43916   0.22712   0.01267  Uiso   1.00
C27    C     0.66720   0.47874   0.25794   0.01267  Uiso   1.00
C28    C     0.45560   0.96841   0.39891   0.01267  Uiso   1.00
C29    C     0.31182   0.02441   0.36965   0.01267  Uiso   1.00
C30    C     0.34439   0.09254   0.26777   0.01267  Uiso   1.00
C31    C     0.51567   0.10788   0.20037   0.01267  Uiso   1.00
C32    C     0.66065   0.05633   0.23018   0.01267  Uiso   1.00
C33    C     0.63085   0.98721   0.32786   0.01267  Uiso   1.00
C34    C     0.43637   0.88946   0.49795   0.01267  Uiso   1.00
C35    C     0.27840   0.77288   0.66628   0.01267  Uiso   1.00
C36    C     0.07486   0.74206   0.73668   0.01267  Uiso   1.00
C37    C     0.85451   0.39891   0.63268   0.01267  Uiso   1.00
C38    C     0.68147   0.36965   0.60594   0.01267  Uiso   1.00
C39    C     0.61216   0.26777   0.63969   0.01267  Uiso   1.00
C40    C     0.71604   0.20037   0.69175   0.01267  Uiso   1.00
C41    C     0.89083   0.23018   0.71349   0.01267  Uiso   1.00
C42    C     0.95871   0.32786   0.68493   0.01267  Uiso   1.00
C43    C     0.93432   0.49795   0.61259   0.01267  Uiso   1.00
C44    C     0.94468   0.66628   0.56084   0.01267  Uiso   1.00
C45    C     0.81154   0.73668   0.52126   0.01267  Uiso   1.00
C46    C     0.48719   0.63268   0.96841   0.01267  Uiso   1.00
C47    C     0.28741   0.60594   0.02441   0.01267  Uiso   1.00
C48    C     0.25185   0.63969   0.09254   0.01267  Uiso   1.00
C49    C     0.40779   0.69175   0.10788   0.01267  Uiso   1.00
C50    C     0.60432   0.71349   0.05633   0.01267  Uiso   1.00
C51    C     0.64364   0.68493   0.98721   0.01267  Uiso   1.00
C52    C     0.54691   0.61259   0.88946   0.01267  Uiso   1.00
C53    C     0.50552   0.56084   0.77288   0.01267  Uiso   1.00
C54    C     0.33280   0.52126   0.74206   0.01267  Uiso   1.00
N1     N     0.71828   0.14484   0.43030   0.01267  Uiso   1.00
N2     N     0.14858   0.43030   0.42486   0.01267  Uiso   1.00
N3     N     0.57344   0.42486   0.14484   0.01267  Uiso   1.00
N4     N     0.28172   0.85516   0.56970   0.01267  Uiso   1.00
N5     N     0.85142   0.56970   0.57514   0.01267  Uiso   1.00
N6     N     0.42656   0.57514   0.85516   0.01267  Uiso   1.00
O1     O     0.84812   0.98494   0.56548   0.01267  Uiso   1.00
O2     O     0.04980   0.20651   0.29661   0.01267  Uiso   1.00
O3     O     0.96199   0.32909   0.17862   0.01267  Uiso   1.00
O4     O     0.41360   0.56548   0.44958   0.01267  Uiso   1.00
O5     O     0.34641   0.29661   0.49688   0.01267  Uiso   1.00
O6     O     0.14061   0.17862   0.49229   0.01267  Uiso   1.00
O7     O     0.86318   0.44958   0.98494   0.01267  Uiso   1.00
O8     O     0.84329   0.49688   0.20651   0.01267  Uiso   1.00
O9     O     0.63290   0.49229   0.32909   0.01267  Uiso   1.00
O10    O     0.15188   0.01506   0.43452   0.01267  Uiso   1.00
O11    O     0.95020   0.79349   0.70339   0.01267  Uiso   1.00
O12    O     0.03801   0.67091   0.82138   0.01267  Uiso   1.00
O13    O     0.58640   0.43452   0.55042   0.01267  Uiso   1.00
O14    O     0.65359   0.70339   0.50312   0.01267  Uiso   1.00
O15    O     0.85939   0.82138   0.50771   0.01267  Uiso   1.00
O16    O     0.13682   0.55042   0.01506   0.01267  Uiso   1.00
O17    O     0.15671   0.50312   0.79349   0.01267  Uiso   1.00
O18    O     0.36710   0.50771   0.67091   0.01267  Uiso   1.00
