data_KUXTUT_clean
_audit_creation_date              2014-07-02
_audit_creation_method            'Materials Studio'
_symmetry_space_group_name_H-M    'P1'
_symmetry_Int_Tables_number       1
_symmetry_cell_setting            triclinic
loop_
_symmetry_equiv_pos_as_xyz
  x,y,z
_cell_length_a                    4.9469
_cell_length_b                    11.0125
_cell_length_c                    15.6955
_cell_angle_alpha                 102.2640
_cell_angle_beta                  90.0000
_cell_angle_gamma                 102.9800
loop_
_atom_site_label
_atom_site_type_symbol
_atom_site_fract_x
_atom_site_fract_y
_atom_site_fract_z
_atom_site_U_iso_or_equiv
_atom_site_adp_type
_atom_site_occupancy
Cu1    Cu    0.50000  -0.00000   0.50000   0.01267  Uiso   1.00
Cu2    Cu    0.50000  -0.00000  -0.00000   0.01267  Uiso   1.00
H1     H     0.74640   0.24760   0.65970   0.01267  Uiso   1.00
H2     H     0.09310   0.24100   0.77120   0.01267  Uiso   1.00
H3     H     0.95270   0.91360   0.59100   0.01267  Uiso   1.00
H4     H     0.32330   0.93520   0.71310   0.01267  Uiso   1.00
H5     H     0.20080   0.57220   0.60380   0.01267  Uiso   1.00
H6     H     0.75380   0.63880   0.41980   0.01267  Uiso   1.00
H7     H     0.49880   0.75240   0.84030   0.01267  Uiso   1.00
H8     H     0.85210   0.75900   0.72880   0.01267  Uiso   1.00
H9     H     0.03910   0.08640   0.90900   0.01267  Uiso   1.00
H10    H     0.38810   0.06480   0.78690   0.01267  Uiso   1.00
H11    H     0.62860   0.42780   0.89620   0.01267  Uiso   1.00
H12    H     0.11500   0.36120   0.08020   0.01267  Uiso   1.00
H13    H     0.25360   0.75240   0.34030   0.01267  Uiso   1.00
H14    H     0.90690   0.75900   0.22880   0.01267  Uiso   1.00
H15    H     0.04730   0.08640   0.40900   0.01267  Uiso   1.00
H16    H     0.67670   0.06480   0.28690   0.01267  Uiso   1.00
H17    H     0.79920   0.42780   0.39620   0.01267  Uiso   1.00
H18    H     0.24620   0.36120   0.58020   0.01267  Uiso   1.00
H19    H     0.50120   0.24760   0.15970   0.01267  Uiso   1.00
H20    H     0.14790   0.24100   0.27120   0.01267  Uiso   1.00
H21    H     0.96090   0.91360   0.09100   0.01267  Uiso   1.00
H22    H     0.61190   0.93520   0.21310   0.01267  Uiso   1.00
H23    H     0.37140   0.57220   0.10380   0.01267  Uiso   1.00
H24    H     0.88500   0.63880   0.91980   0.01267  Uiso   1.00
C1     C     0.83266   0.17872   0.65989   0.01267  Uiso   1.00
C2     C     0.02319   0.17618   0.72086   0.01267  Uiso   1.00
C3     C     0.94439   0.99678   0.62165   0.01267  Uiso   1.00
C4     C     0.32201   0.54282   0.56144   0.01267  Uiso   1.00
C5     C     0.47140   0.62520   0.51306   0.01267  Uiso   1.00
C6     C     0.64985   0.58230   0.45234   0.01267  Uiso   1.00
C7     C     0.43634   0.76068   0.52843   0.01267  Uiso   1.00
C8     C     0.65394   0.82128   0.84011   0.01267  Uiso   1.00
C9     C     0.84701   0.82382   0.77914   0.01267  Uiso   1.00
C10    C     0.94761   0.00322   0.87835   0.01267  Uiso   1.00
C11    C     0.77919   0.45718   0.93856   0.01267  Uiso   1.00
C12    C     0.84620   0.37480   0.98694   0.01267  Uiso   1.00
C13    C     0.06755   0.41770   0.04766   0.01267  Uiso   1.00
C14    C     0.67566   0.23932   0.97157   0.01267  Uiso   1.00
C15    C     0.16734   0.82128   0.34011   0.01267  Uiso   1.00
C16    C     0.97681   0.82382   0.27914   0.01267  Uiso   1.00
C17    C     0.05561   0.00322   0.37835   0.01267  Uiso   1.00
C18    C     0.67799   0.45718   0.43856   0.01267  Uiso   1.00
C19    C     0.52860   0.37480   0.48694   0.01267  Uiso   1.00
C20    C     0.35015   0.41770   0.54766   0.01267  Uiso   1.00
C21    C     0.56366   0.23932   0.47157   0.01267  Uiso   1.00
C22    C     0.34606   0.17872   0.15989   0.01267  Uiso   1.00
C23    C     0.15299   0.17618   0.22086   0.01267  Uiso   1.00
C24    C     0.05239   0.99678   0.12165   0.01267  Uiso   1.00
C25    C     0.22081   0.54282   0.06144   0.01267  Uiso   1.00
C26    C     0.15380   0.62520   0.01306   0.01267  Uiso   1.00
C27    C     0.93245   0.58230   0.95234   0.01267  Uiso   1.00
C28    C     0.32434   0.76068   0.02843   0.01267  Uiso   1.00
C29    C     0.23860  -0.00000   0.75000   0.01267  Uiso   1.00
C30    C     0.76140   0.00000   0.25000   0.01267  Uiso   1.00
N1     N     0.78293   0.06506   0.59768   0.01267  Uiso   1.00
N2     N     0.09576   0.06032   0.69514   0.01267  Uiso   1.00
N3     N     0.71787   0.93494   0.90232   0.01267  Uiso   1.00
N4     N     0.03544   0.93968   0.80486   0.01267  Uiso   1.00
N5     N     0.21707   0.93494   0.40232   0.01267  Uiso   1.00
N6     N     0.90424   0.93968   0.30486   0.01267  Uiso   1.00
N7     N     0.28213   0.06506   0.09768   0.01267  Uiso   1.00
N8     N     0.96456   0.06032   0.19514   0.01267  Uiso   1.00
O1     O     0.57792   0.83044   0.48043   0.01267  Uiso   1.00
O2     O     0.27981   0.79742   0.58388   0.01267  Uiso   1.00
O3     O     0.74748   0.16956   0.01957   0.01267  Uiso   1.00
O4     O     0.48239   0.20258   0.91612   0.01267  Uiso   1.00
O5     O     0.42208   0.16956   0.51957   0.01267  Uiso   1.00
O6     O     0.72019   0.20258   0.41612   0.01267  Uiso   1.00
O7     O     0.25252   0.83044   0.98043   0.01267  Uiso   1.00
O8     O     0.51761   0.79742   0.08388   0.01267  Uiso   1.00
