data_WIZFES_clean
_audit_creation_date              2015-10-16
_audit_creation_method            'Materials Studio'
_symmetry_space_group_name_H-M    'P1'
_symmetry_Int_Tables_number       1
_symmetry_cell_setting            triclinic
loop_
_symmetry_equiv_pos_as_xyz
  x,y,z
_cell_length_a                    3.7317
_cell_length_b                    14.8570
_cell_length_c                    23.6150
_cell_angle_alpha                 90.0000
_cell_angle_beta                  90.0000
_cell_angle_gamma                 90.0000
loop_
_atom_site_label
_atom_site_type_symbol
_atom_site_fract_x
_atom_site_fract_y
_atom_site_fract_z
_atom_site_U_iso_or_equiv
_atom_site_adp_type
_atom_site_occupancy
Cd1    Cd    0.50000   0.11063   0.99173   0.01267  Uiso   1.00
Cd2    Cd    0.50000   0.72771   0.76032   0.01267  Uiso   1.00
Cd3    Cd    0.50000   0.22771   0.73968   0.01267  Uiso   1.00
Cd4    Cd    0.50000   0.88937   0.00827   0.01267  Uiso   1.00
Cd5    Cd    0.50000   0.38937   0.49173   0.01267  Uiso   1.00
Cd6    Cd    0.50000   0.61063   0.50827   0.01267  Uiso   1.00
Cd7    Cd    0.50000   0.77229   0.26032   0.01267  Uiso   1.00
Cd8    Cd    0.50000   0.27229   0.23968   0.01267  Uiso   1.00
H1     H     0.50000   0.52460   0.79920   0.01267  Uiso   1.00
H2     H     0.50000   0.23290   0.10950   0.01267  Uiso   1.00
H3     H     0.50000   0.57380   0.21290   0.01267  Uiso   1.00
H4     H     0.50000   0.68380   0.63610   0.01267  Uiso   1.00
H5     H     0.50000   0.02460   0.70080   0.01267  Uiso   1.00
H6     H     0.50000   0.76710   0.89050   0.01267  Uiso   1.00
H7     H     0.50000   0.18380   0.86390   0.01267  Uiso   1.00
H8     H     0.50000   0.92620   0.71290   0.01267  Uiso   1.00
H9     H     0.50000   0.73290   0.39050   0.01267  Uiso   1.00
H10    H     0.50000   0.97540   0.29920   0.01267  Uiso   1.00
H11    H     0.50000   0.42620   0.78710   0.01267  Uiso   1.00
H12    H     0.50000   0.07380   0.28710   0.01267  Uiso   1.00
H13    H     0.50000   0.81620   0.13610   0.01267  Uiso   1.00
H14    H     0.50000   0.47540   0.20080   0.01267  Uiso   1.00
H15    H     0.50000   0.26710   0.60950   0.01267  Uiso   1.00
H16    H     0.50000   0.31620   0.36390   0.01267  Uiso   1.00
C1     C     0.50000   0.50110   0.28270   0.01267  Uiso   1.00
C2     C     0.50000   0.97700   0.87840   0.01267  Uiso   1.00
C3     C     0.50000   0.12300   0.85480   0.01267  Uiso   1.00
C4     C     0.50000   0.62300   0.64520   0.01267  Uiso   1.00
C5     C     0.50000   0.82600   0.87770   0.01267  Uiso   1.00
C6     C     0.50000   0.06600   0.17330   0.01267  Uiso   1.00
C7     C     0.50000   0.00110   0.21730   0.01267  Uiso   1.00
C8     C     0.50000   0.67400   0.37770   0.01267  Uiso   1.00
C9     C     0.50000   0.37700   0.35480   0.01267  Uiso   1.00
C10    C     0.50000   0.47700   0.62160   0.01267  Uiso   1.00
C11    C     0.50000   0.93400   0.82670   0.01267  Uiso   1.00
C12    C     0.50000   0.52300   0.37840   0.01267  Uiso   1.00
C13    C     0.50000   0.02300   0.12160   0.01267  Uiso   1.00
C14    C     0.50000   0.99890   0.78270   0.01267  Uiso   1.00
C15    C     0.50000   0.43400   0.67330   0.01267  Uiso   1.00
C16    C     0.50000   0.56600   0.32670   0.01267  Uiso   1.00
C17    C     0.50000   0.17400   0.12230   0.01267  Uiso   1.00
C18    C     0.50000   0.49890   0.71730   0.01267  Uiso   1.00
C19    C     0.50000   0.87700   0.14520   0.01267  Uiso   1.00
C20    C     0.50000   0.32600   0.62230   0.01267  Uiso   1.00
N1     N     0.50000   0.98090   0.72480   0.01267  Uiso   1.00
N2     N     0.50000   0.93880   0.10150   0.01267  Uiso   1.00
N3     N     0.50000   0.85040   0.82430   0.01267  Uiso   1.00
N4     N     0.50000   0.43880   0.39850   0.01267  Uiso   1.00
N5     N     0.50000   0.06120   0.89850   0.01267  Uiso   1.00
N6     N     0.50000   0.40040   0.30040   0.01267  Uiso   1.00
N7     N     0.50000   0.64960   0.32430   0.01267  Uiso   1.00
N8     N     0.50000   0.09640   0.08680   0.01267  Uiso   1.00
N9     N     0.50000   0.40360   0.58680   0.01267  Uiso   1.00
N10    N     0.50000   0.35040   0.67570   0.01267  Uiso   1.00
N11    N     0.50000   0.59640   0.41320   0.01267  Uiso   1.00
N12    N     0.50000   0.01910   0.27520   0.01267  Uiso   1.00
N13    N     0.50000   0.48090   0.77520   0.01267  Uiso   1.00
N14    N     0.50000   0.59960   0.69960   0.01267  Uiso   1.00
N15    N     0.50000   0.90360   0.91320   0.01267  Uiso   1.00
N16    N     0.50000   0.14960   0.17570   0.01267  Uiso   1.00
N17    N     0.50000   0.56120   0.60150   0.01267  Uiso   1.00
N18    N     0.50000   0.09960   0.80040   0.01267  Uiso   1.00
N19    N     0.50000   0.90040   0.19960   0.01267  Uiso   1.00
N20    N     0.50000   0.51910   0.22480   0.01267  Uiso   1.00
Cl1    Cl    0.00000   0.26900   0.48230   0.01267  Uiso   1.00
Cl2    Cl    0.00000   0.00000   0.00000   0.01267  Uiso   1.00
Cl3    Cl    0.00000   0.76900   0.01770   0.01267  Uiso   1.00
Cl4    Cl    0.00000   0.70110   0.19630   0.01267  Uiso   1.00
Cl5    Cl    0.00000   0.79890   0.69630   0.01267  Uiso   1.00
Cl6    Cl    0.00000   0.29890   0.80370   0.01267  Uiso   1.00
Cl7    Cl    0.00000   0.15390   0.67510   0.01267  Uiso   1.00
Cl8    Cl    0.00000   0.50000   0.50000   0.01267  Uiso   1.00
Cl9    Cl    0.00000   0.23100   0.98230   0.01267  Uiso   1.00
Cl10   Cl    0.00000   0.34610   0.17510   0.01267  Uiso   1.00
Cl11   Cl    0.00000   0.20110   0.30370   0.01267  Uiso   1.00
Cl12   Cl    0.00000   0.73100   0.51770   0.01267  Uiso   1.00
Cl13   Cl    0.00000   0.65390   0.82490   0.01267  Uiso   1.00
Cl14   Cl    0.00000   0.84610   0.32490   0.01267  Uiso   1.00
