data_ja2092882_si_002
_audit_creation_date              2015-10-12
_audit_creation_method            'Materials Studio'
_symmetry_space_group_name_H-M    'P1'
_symmetry_Int_Tables_number       1
_symmetry_cell_setting            triclinic
loop_
_symmetry_equiv_pos_as_xyz
  x,y,z
_cell_length_a                    15.4962
_cell_length_b                    15.4962
_cell_length_c                    13.7523
_cell_angle_alpha                 90.0000
_cell_angle_beta                  90.0000
_cell_angle_gamma                 90.0000
loop_
_atom_site_label
_atom_site_type_symbol
_atom_site_fract_x
_atom_site_fract_y
_atom_site_fract_z
_atom_site_U_iso_or_equiv
_atom_site_adp_type
_atom_site_occupancy
Zn1    Zn    0.50000   0.50000   0.14003   0.04195  Uani   1.00
Zn2    Zn    0.00000   0.00000   0.64003   0.04195  Uani   1.00
Zn3    Zn    0.00000   0.00000   0.35997   0.04195  Uani   1.00
Zn4    Zn    0.50000   0.50000   0.85997   0.04195  Uani   1.00
N5     N     0.41621   0.58379   0.30836   0.05153  Uani   1.00
N6     N     0.42431   0.57569   0.21408   0.06010  Uani   1.00
N7     N     0.37237   0.62763   0.16959   0.14670  Uani   1.00
H8     H     0.36770   0.63230   0.10750   0.17600  Uiso   0.50
N9     N     0.32756   0.67244   0.23363   0.15187  Uani   1.00
N10    N     0.12816   0.87184   0.41957   0.05193  Uani   1.00
N11    N     0.07119   0.92881   0.45231   0.04460  Uani   1.00
C12    C     0.35617   0.64383   0.31862   0.06547  Uani   1.00
C13    C     0.32356   0.67644   0.41275   0.05343  Uani   1.00
C14    C     0.26015   0.73985   0.41305   0.05650  Uani   1.00
H15    H     0.23890   0.76110   0.35450   0.06800  Uiso   1.00
N16    N     0.58379   0.41621   0.30836   0.05153  Uani   1.00
N17    N     0.57569   0.42431   0.21408   0.06010  Uani   1.00
N18    N     0.62763   0.37237   0.16959   0.14670  Uani   1.00
H19    H     0.63230   0.36770   0.10750   0.17600  Uiso   0.50
N20    N     0.67244   0.32756   0.23363   0.15187  Uani   1.00
N21    N     0.87184   0.12816   0.41957   0.05193  Uani   1.00
N22    N     0.92881   0.07119   0.45231   0.04460  Uani   1.00
C23    C     0.64383   0.35617   0.31862   0.06547  Uani   1.00
C24    C     0.67644   0.32356   0.41275   0.05343  Uani   1.00
C25    C     0.73985   0.26015   0.41305   0.05650  Uani   1.00
H26    H     0.76110   0.23890   0.35450   0.06800  Uiso   1.00
N27    N     0.91621   0.91621   0.80836   0.05153  Uani   1.00
N28    N     0.92431   0.92431   0.71408   0.06010  Uani   1.00
N29    N     0.87237   0.87237   0.66959   0.14670  Uani   1.00
H30    H     0.86770   0.86770   0.60750   0.17600  Uiso   0.50
N31    N     0.82756   0.82756   0.73363   0.15187  Uani   1.00
N32    N     0.62816   0.62816   0.91957   0.05193  Uani   1.00
N33    N     0.57119   0.57119   0.95231   0.04460  Uani   1.00
C34    C     0.85617   0.85617   0.81862   0.06547  Uani   1.00
C35    C     0.82356   0.82356   0.91275   0.05343  Uani   1.00
C36    C     0.76015   0.76015   0.91305   0.05650  Uani   1.00
H37    H     0.73890   0.73890   0.85450   0.06800  Uiso   1.00
N38    N     0.08379   0.08379   0.80836   0.05153  Uani   1.00
N39    N     0.07569   0.07569   0.71408   0.06010  Uani   1.00
N40    N     0.12763   0.12763   0.66959   0.14670  Uani   1.00
H41    H     0.13230   0.13230   0.60750   0.17600  Uiso   0.50
N42    N     0.17244   0.17244   0.73363   0.15187  Uani   1.00
N43    N     0.37184   0.37184   0.91957   0.05193  Uani   1.00
N44    N     0.42881   0.42881   0.95231   0.04460  Uani   1.00
C45    C     0.14383   0.14383   0.81862   0.06547  Uani   1.00
C46    C     0.17644   0.17644   0.91275   0.05343  Uani   1.00
C47    C     0.23985   0.23985   0.91305   0.05650  Uani   1.00
H48    H     0.26110   0.26110   0.85450   0.06800  Uiso   1.00
N49    N     0.08379   0.08379   0.19164   0.05153  Uani   1.00
N50    N     0.07569   0.07569   0.28592   0.06010  Uani   1.00
N51    N     0.12763   0.12763   0.33041   0.14670  Uani   1.00
H52    H     0.13230   0.13230   0.39250   0.17600  Uiso   0.50
N53    N     0.17244   0.17244   0.26637   0.15187  Uani   1.00
N54    N     0.37184   0.37184   0.08043   0.05193  Uani   1.00
N55    N     0.42881   0.42881   0.04769   0.04460  Uani   1.00
C56    C     0.14383   0.14383   0.18138   0.06547  Uani   1.00
C57    C     0.17644   0.17644   0.08725   0.05343  Uani   1.00
C58    C     0.23985   0.23985   0.08695   0.05650  Uani   1.00
H59    H     0.26110   0.26110   0.14550   0.06800  Uiso   1.00
N60    N     0.91621   0.91621   0.19164   0.05153  Uani   1.00
N61    N     0.92431   0.92431   0.28592   0.06010  Uani   1.00
N62    N     0.87237   0.87237   0.33041   0.14670  Uani   1.00
H63    H     0.86770   0.86770   0.39250   0.17600  Uiso   0.50
N64    N     0.82756   0.82756   0.26637   0.15187  Uani   1.00
N65    N     0.62816   0.62816   0.08043   0.05193  Uani   1.00
N66    N     0.57119   0.57119   0.04769   0.04460  Uani   1.00
C67    C     0.85617   0.85617   0.18138   0.06547  Uani   1.00
C68    C     0.82356   0.82356   0.08725   0.05343  Uani   1.00
C69    C     0.76015   0.76015   0.08695   0.05650  Uani   1.00
H70    H     0.73890   0.73890   0.14550   0.06800  Uiso   1.00
N71    N     0.58379   0.41621   0.69164   0.05153  Uani   1.00
N72    N     0.57569   0.42431   0.78592   0.06010  Uani   1.00
N73    N     0.62763   0.37237   0.83041   0.14670  Uani   1.00
H74    H     0.63230   0.36770   0.89250   0.17600  Uiso   0.50
N75    N     0.67244   0.32756   0.76637   0.15187  Uani   1.00
N76    N     0.87184   0.12816   0.58043   0.05193  Uani   1.00
N77    N     0.92881   0.07119   0.54769   0.04460  Uani   1.00
C78    C     0.64383   0.35617   0.68138   0.06547  Uani   1.00
C79    C     0.67644   0.32356   0.58725   0.05343  Uani   1.00
C80    C     0.73985   0.26015   0.58695   0.05650  Uani   1.00
H81    H     0.76110   0.23890   0.64550   0.06800  Uiso   1.00
N82    N     0.41621   0.58379   0.69164   0.05153  Uani   1.00
N83    N     0.42431   0.57569   0.78592   0.06010  Uani   1.00
N84    N     0.37237   0.62763   0.83041   0.14670  Uani   1.00
H85    H     0.36770   0.63230   0.89250   0.17600  Uiso   0.50
N86    N     0.32756   0.67244   0.76637   0.15187  Uani   1.00
N87    N     0.12816   0.87184   0.58043   0.05193  Uani   1.00
N88    N     0.07119   0.92881   0.54769   0.04460  Uani   1.00
C89    C     0.35617   0.64383   0.68138   0.06547  Uani   1.00
C90    C     0.32356   0.67644   0.58725   0.05343  Uani   1.00
C91    C     0.26015   0.73985   0.58695   0.05650  Uani   1.00
H92    H     0.23890   0.76110   0.64550   0.06800  Uiso   1.00
C93    C     0.35618   0.64382   0.50000   0.05357  Uani   1.00
H94    H     0.39860   0.60140   0.50000   0.06400  Uiso   1.00
C95    C     0.22850   0.77150   0.50000   0.04933  Uani   1.00
C96    C     0.16176   0.83824   0.50000   0.04870  Uani   1.00
C97    C     0.64382   0.35618   0.50000   0.05357  Uani   1.00
H98    H     0.60140   0.39860   0.50000   0.06400  Uiso   1.00
C99    C     0.77150   0.22850   0.50000   0.04933  Uani   1.00
C100   C     0.83824   0.16176   0.50000   0.04870  Uani   1.00
C101   C     0.85618   0.85618   0.00000   0.05357  Uani   1.00
H102   H     0.89860   0.89860   0.00000   0.06400  Uiso   1.00
C103   C     0.72850   0.72850   0.00000   0.04933  Uani   1.00
C104   C     0.66176   0.66176   0.00000   0.04870  Uani   1.00
C105   C     0.14382   0.14382   0.00000   0.05357  Uani   1.00
H106   H     0.10140   0.10140   0.00000   0.06400  Uiso   1.00
C107   C     0.27150   0.27150   0.00000   0.04933  Uani   1.00
C108   C     0.33824   0.33824   0.00000   0.04870  Uani   1.00
loop_
_atom_site_aniso_label
_atom_site_aniso_U_11
_atom_site_aniso_U_22
_atom_site_aniso_U_33
_atom_site_aniso_U_12
_atom_site_aniso_U_13
_atom_site_aniso_U_23
Zn1       0.05150   0.05150   0.02284  -0.00070   0.00000   0.00000
Zn2       0.05150   0.05150   0.02284   0.00070   0.00000   0.00000
Zn3       0.05150   0.05150   0.02284   0.00070   0.00000   0.00000
Zn4       0.05150   0.05150   0.02284  -0.00070   0.00000   0.00000
N5        0.06240   0.06240   0.02980   0.01220   0.00060  -0.00060
N6        0.07560   0.07560   0.02910   0.02330  -0.00160   0.00160
N7        0.20300   0.20300   0.03410   0.14300   0.00210  -0.00210
N9        0.21000   0.21000   0.03560   0.16000  -0.00120   0.00120
N10       0.06140   0.06140   0.03300   0.01740  -0.00010   0.00010
N11       0.05130   0.05130   0.03120   0.00280  -0.00090   0.00090
C12       0.08200   0.08200   0.03240   0.02860  -0.00180   0.00180
C13       0.06490   0.06490   0.03050   0.01690   0.00450  -0.00450
C14       0.06670   0.06670   0.03610   0.02410  -0.00280   0.00280
N16       0.06240   0.06240   0.02980   0.01220  -0.00060   0.00060
N17       0.07560   0.07560   0.02910   0.02330   0.00160  -0.00160
N18       0.20300   0.20300   0.03410   0.14300  -0.00210   0.00210
N20       0.21000   0.21000   0.03560   0.16000   0.00120  -0.00120
N21       0.06140   0.06140   0.03300   0.01740   0.00010  -0.00010
N22       0.05130   0.05130   0.03120   0.00280   0.00090  -0.00090
C23       0.08200   0.08200   0.03240   0.02860   0.00180  -0.00180
C24       0.06490   0.06490   0.03050   0.01690  -0.00450   0.00450
C25       0.06670   0.06670   0.03610   0.02410   0.00280  -0.00280
N27       0.06240   0.06240   0.02980  -0.01220   0.00060   0.00060
N28       0.07560   0.07560   0.02910  -0.02330  -0.00160  -0.00160
N29       0.20300   0.20300   0.03410  -0.14300   0.00210   0.00210
N31       0.21000   0.21000   0.03560  -0.16000  -0.00120  -0.00120
N32       0.06140   0.06140   0.03300  -0.01740  -0.00010  -0.00010
N33       0.05130   0.05130   0.03120  -0.00280  -0.00090  -0.00090
C34       0.08200   0.08200   0.03240  -0.02860  -0.00180  -0.00180
C35       0.06490   0.06490   0.03050  -0.01690   0.00450   0.00450
C36       0.06670   0.06670   0.03610  -0.02410  -0.00280  -0.00280
N38       0.06240   0.06240   0.02980  -0.01220  -0.00060  -0.00060
N39       0.07560   0.07560   0.02910  -0.02330   0.00160   0.00160
N40       0.20300   0.20300   0.03410  -0.14300  -0.00210  -0.00210
N42       0.21000   0.21000   0.03560  -0.16000   0.00120   0.00120
N43       0.06140   0.06140   0.03300  -0.01740   0.00010   0.00010
N44       0.05130   0.05130   0.03120  -0.00280   0.00090   0.00090
C45       0.08200   0.08200   0.03240  -0.02860   0.00180   0.00180
C46       0.06490   0.06490   0.03050  -0.01690  -0.00450  -0.00450
C47       0.06670   0.06670   0.03610  -0.02410   0.00280   0.00280
N49       0.06240   0.06240   0.02980  -0.01220   0.00060   0.00060
N50       0.07560   0.07560   0.02910  -0.02330  -0.00160  -0.00160
N51       0.20300   0.20300   0.03410  -0.14300   0.00210   0.00210
N53       0.21000   0.21000   0.03560  -0.16000  -0.00120  -0.00120
N54       0.06140   0.06140   0.03300  -0.01740  -0.00010  -0.00010
N55       0.05130   0.05130   0.03120  -0.00280  -0.00090  -0.00090
C56       0.08200   0.08200   0.03240  -0.02860  -0.00180  -0.00180
C57       0.06490   0.06490   0.03050  -0.01690   0.00450   0.00450
C58       0.06670   0.06670   0.03610  -0.02410  -0.00280  -0.00280
N60       0.06240   0.06240   0.02980  -0.01220  -0.00060  -0.00060
N61       0.07560   0.07560   0.02910  -0.02330   0.00160   0.00160
N62       0.20300   0.20300   0.03410  -0.14300  -0.00210  -0.00210
N64       0.21000   0.21000   0.03560  -0.16000   0.00120   0.00120
N65       0.06140   0.06140   0.03300  -0.01740   0.00010   0.00010
N66       0.05130   0.05130   0.03120  -0.00280   0.00090   0.00090
C67       0.08200   0.08200   0.03240  -0.02860   0.00180   0.00180
C68       0.06490   0.06490   0.03050  -0.01690  -0.00450  -0.00450
C69       0.06670   0.06670   0.03610  -0.02410   0.00280   0.00280
N71       0.06240   0.06240   0.02980   0.01220   0.00060  -0.00060
N72       0.07560   0.07560   0.02910   0.02330  -0.00160   0.00160
N73       0.20300   0.20300   0.03410   0.14300   0.00210  -0.00210
N75       0.21000   0.21000   0.03560   0.16000  -0.00120   0.00120
N76       0.06140   0.06140   0.03300   0.01740  -0.00010   0.00010
N77       0.05130   0.05130   0.03120   0.00280  -0.00090   0.00090
C78       0.08200   0.08200   0.03240   0.02860  -0.00180   0.00180
C79       0.06490   0.06490   0.03050   0.01690   0.00450  -0.00450
C80       0.06670   0.06670   0.03610   0.02410  -0.00280   0.00280
N82       0.06240   0.06240   0.02980   0.01220  -0.00060   0.00060
N83       0.07560   0.07560   0.02910   0.02330   0.00160  -0.00160
N84       0.20300   0.20300   0.03410   0.14300  -0.00210   0.00210
N86       0.21000   0.21000   0.03560   0.16000   0.00120  -0.00120
N87       0.06140   0.06140   0.03300   0.01740   0.00010  -0.00010
N88       0.05130   0.05130   0.03120   0.00280   0.00090  -0.00090
C89       0.08200   0.08200   0.03240   0.02860   0.00180  -0.00180
C90       0.06490   0.06490   0.03050   0.01690  -0.00450   0.00450
C91       0.06670   0.06670   0.03610   0.02410   0.00280  -0.00280
C93       0.06200   0.06200   0.03670   0.02100   0.00000   0.00000
C95       0.05770   0.05770   0.03260   0.01500   0.00000   0.00000
C96       0.05550   0.05550   0.03510   0.00350   0.00000   0.00000
C97       0.06200   0.06200   0.03670   0.02100   0.00000   0.00000
C99       0.05770   0.05770   0.03260   0.01500   0.00000   0.00000
C100      0.05550   0.05550   0.03510   0.00350   0.00000   0.00000
C101      0.06200   0.06200   0.03670  -0.02100   0.00000   0.00000
C103      0.05770   0.05770   0.03260  -0.01500   0.00000   0.00000
C104      0.05550   0.05550   0.03510  -0.00350   0.00000   0.00000
C105      0.06200   0.06200   0.03670  -0.02100   0.00000   0.00000
C107      0.05770   0.05770   0.03260  -0.01500   0.00000   0.00000
C108      0.05550   0.05550   0.03510  -0.00350   0.00000   0.00000
loop_
_geom_bond_atom_site_label_1
_geom_bond_atom_site_label_2
_geom_bond_distance
_geom_bond_site_symmetry_2
_ccdc_geom_bond_type
Zn1    N6      1.946   .     S
Zn1    N17     1.946   .     S
Zn1    N66     2.012   .     S
Zn1    N55     2.012   .     S
Zn2    N39     1.946   .     S
Zn2    N28     1.946   1_445 S
Zn2    N77     2.012   1_455 S
Zn2    N88     2.012   1_545 S
Zn3    N50     1.946   .     S
Zn3    N61     1.946   1_445 S
Zn3    N22     2.012   1_455 S
Zn3    N11     2.012   1_545 S
Zn4    N72     1.946   .     S
Zn4    N83     1.946   .     S
Zn4    N33     2.012   .     S
Zn4    N44     2.012   .     S
N5     N6      1.309   .     A
N5     C12     1.323   .     A
N6     N7      1.292   .     A
N7     N9      1.319   .     A
N7     H8      0.860   .     S
N9     C12     1.326   .     A
N10    N11     1.327   .     A
N10    C96     1.329   .     A
N11    N88     1.312   .     A
N11    Zn3     2.012   1_565 S
C12    C13     1.479   .     S
C13    C14     1.390   .     A
C13    C93     1.397   .     A
C14    C95     1.382   .     A
C14    H15     0.930   .     S
N16    N17     1.309   .     A
N16    C23     1.323   .     A
N17    N18     1.292   .     A
N18    N20     1.319   .     A
N18    H19     0.860   .     S
N20    C23     1.326   .     A
N21    N22     1.327   .     A
N21    C100    1.329   .     A
N22    N77     1.312   .     A
N22    Zn3     2.012   1_655 S
C23    C24     1.479   .     S
C24    C25     1.390   .     A
C24    C97     1.397   .     A
C25    C99     1.382   .     A
C25    H26     0.930   .     S
N27    N28     1.309   .     A
N27    C34     1.323   .     A
N28    N29     1.292   .     A
N28    Zn2     1.946   1_665 S
N29    N31     1.319   .     A
N29    H30     0.860   .     S
N31    C34     1.326   .     A
N32    N33     1.327   .     A
N32    C104    1.329   1_556 A
N33    N66     1.312   1_556 A
C34    C35     1.479   .     S
C35    C36     1.390   .     A
C35    C101    1.397   1_556 A
C36    H37     0.930   .     S
C36    C103    1.382   1_556 A
N38    N39     1.309   .     A
N38    C45     1.323   .     A
N39    N40     1.292   .     A
N40    N42     1.319   .     A
N40    H41     0.860   .     S
N42    C45     1.326   .     A
N43    N44     1.327   .     A
N43    C108    1.329   1_556 A
N44    N55     1.312   1_556 A
C45    C46     1.479   .     S
C46    C47     1.390   .     A
C46    C105    1.397   1_556 A
C47    H48     0.930   .     S
C47    C107    1.382   1_556 A
N49    N50     1.309   .     A
N49    C56     1.323   .     A
N50    N51     1.292   .     A
N51    N53     1.319   .     A
N51    H52     0.860   .     S
N53    C56     1.326   .     A
N54    N55     1.327   .     A
N54    C108    1.329   .     A
N55    N44     1.312   1_554 A
C56    C57     1.479   .     S
C57    C58     1.390   .     A
C57    C105    1.397   .     A
C58    C107    1.382   .     A
C58    H59     0.930   .     S
N60    N61     1.309   .     A
N60    C67     1.323   .     A
N61    N62     1.292   .     A
N61    Zn3     1.946   1_665 S
N62    N64     1.319   .     A
N62    H63     0.860   .     S
N64    C67     1.326   .     A
N65    N66     1.327   .     A
N65    C104    1.329   .     A
N66    N33     1.312   1_554 A
C67    C68     1.479   .     S
C68    C69     1.390   .     A
C68    C101    1.397   .     A
C69    C103    1.382   .     A
C69    H70     0.930   .     S
N71    N72     1.309   .     A
N71    C78     1.323   .     A
N72    N73     1.292   .     A
N73    N75     1.319   .     A
N73    H74     0.860   .     S
N75    C78     1.326   .     A
N76    N77     1.327   .     A
N76    C100    1.329   .     A
N77    Zn2     2.012   1_655 S
C78    C79     1.479   .     S
C79    C80     1.390   .     A
C79    C97     1.397   .     A
C80    C99     1.382   .     A
C80    H81     0.930   .     S
N82    N83     1.309   .     A
N82    C89     1.323   .     A
N83    N84     1.292   .     A
N84    N86     1.319   .     A
N84    H85     0.860   .     S
N86    C89     1.326   .     A
N87    N88     1.327   .     A
N87    C96     1.329   .     A
N88    Zn2     2.012   1_565 S
C89    C90     1.479   .     S
C90    C91     1.390   .     A
C90    C93     1.397   .     A
C91    C95     1.382   .     A
C91    H92     0.930   .     S
C93    H94     0.930   .     S
C95    C96     1.463   .     S
C97    H98     0.930   .     S
C99    C100    1.463   .     S
C101   H102    0.930   .     S
C101   C35     1.397   1_554 A
C103   C104    1.463   .     S
C103   C36     1.382   1_554 A
C104   N32     1.329   1_554 A
C105   H106    0.930   .     S
C105   C46     1.397   1_554 A
C107   C108    1.463   .     S
C107   C47     1.382   1_554 A
C108   N43     1.329   1_554 A
