data_UFANEV_charged
_audit_creation_date              2014-07-02
_audit_creation_method            'Materials Studio'
_symmetry_space_group_name_H-M    'P1'
_symmetry_Int_Tables_number       1
_symmetry_cell_setting            triclinic
loop_
_symmetry_equiv_pos_as_xyz
  x,y,z
_cell_length_a                    17.0259
_cell_length_b                    17.0259
_cell_length_c                    17.0259
_cell_angle_alpha                 90.4332
_cell_angle_beta                  119.7500
_cell_angle_gamma                 119.7500
loop_
_atom_site_label
_atom_site_type_symbol
_atom_site_fract_x
_atom_site_fract_y
_atom_site_fract_z
_atom_site_U_iso_or_equiv
_atom_site_adp_type
_atom_site_occupancy
Ag1    Ag    0.13540   0.37500   0.01040   0.01267  Uiso   1.00
Ag2    Ag    0.86460   0.87500   0.23960   0.01267  Uiso   1.00
Ag3    Ag    0.13540   0.76040   0.12500   0.01267  Uiso   1.00
Ag4    Ag    0.86460   0.98960   0.62500   0.01267  Uiso   1.00
H1     H     0.58600   0.20750   0.93350   0.01267  Uiso   1.00
H2     H     0.58900   0.27320   0.86840   0.01267  Uiso   1.00
H3     H     0.67410   0.37050   0.00860   0.01267  Uiso   1.00
H4     H     0.74110   0.49450   0.12980   0.01267  Uiso   1.00
H5     H     0.62020   0.50520   0.14640   0.01267  Uiso   1.00
H6     H     0.43600   0.39820   0.04260   0.01267  Uiso   1.00
H7     H     0.30480   0.19620   0.84400   0.01267  Uiso   1.00
H8     H     0.41400   0.34750   0.62150   0.01267  Uiso   1.00
H9     H     0.41100   0.27940   0.68420   0.01267  Uiso   1.00
H10    H     0.32590   0.33450   0.69640   0.01267  Uiso   1.00
H11    H     0.25890   0.38870   0.75340   0.01267  Uiso   1.00
H12    H     0.37980   0.52620   0.88500   0.01267  Uiso   1.00
H13    H     0.56400   0.60660   0.96220   0.01267  Uiso   1.00
H14    H     0.69520   0.53920   0.89140   0.01267  Uiso   1.00
H15    H     0.22600   0.68350   0.59750   0.01267  Uiso   1.00
H16    H     0.09520   0.61840   0.52940   0.01267  Uiso   1.00
H17    H     0.13810   0.75860   0.58450   0.01267  Uiso   1.00
H18    H     0.13530   0.87980   0.63870   0.01267  Uiso   1.00
H19    H     0.14120   0.89640   0.77620   0.01267  Uiso   1.00
H20    H     0.14440   0.79260   0.85660   0.01267  Uiso   1.00
H21    H     0.14780   0.59400   0.78920   0.01267  Uiso   1.00
H22    H     0.77400   0.37150   0.45750   0.01267  Uiso   1.00
H23    H     0.90480   0.43420   0.52320   0.01267  Uiso   1.00
H24    H     0.86190   0.44640   0.62050   0.01267  Uiso   1.00
H25    H     0.86470   0.50340   0.74450   0.01267  Uiso   1.00
H26    H     0.85880   0.63500   0.75520   0.01267  Uiso   1.00
H27    H     0.85560   0.71220   0.64820   0.01267  Uiso   1.00
H28    H     0.85220   0.64140   0.44620   0.01267  Uiso   1.00
H29    H     0.77400   0.40250   0.31650   0.01267  Uiso   1.00
H30    H     0.90480   0.47060   0.38160   0.01267  Uiso   1.00
H31    H     0.86190   0.41550   0.24140   0.01267  Uiso   1.00
H32    H     0.86470   0.36130   0.12020   0.01267  Uiso   1.00
H33    H     0.85880   0.22380   0.10360   0.01267  Uiso   1.00
H34    H     0.85560   0.14340   0.20740   0.01267  Uiso   1.00
H35    H     0.85220   0.21080   0.40600   0.01267  Uiso   1.00
H36    H     0.22600   0.54250   0.62850   0.01267  Uiso   1.00
H37    H     0.09520   0.47680   0.56580   0.01267  Uiso   1.00
H38    H     0.13810   0.37950   0.55360   0.01267  Uiso   1.00
H39    H     0.13530   0.25550   0.49660   0.01267  Uiso   1.00
H40    H     0.14120   0.24480   0.36500   0.01267  Uiso   1.00
H41    H     0.14440   0.35180   0.28780   0.01267  Uiso   1.00
H42    H     0.14780   0.55380   0.35860   0.01267  Uiso   1.00
H43    H     0.58600   0.37850   0.65250   0.01267  Uiso   1.00
H44    H     0.58900   0.31580   0.72060   0.01267  Uiso   1.00
H45    H     0.67410   0.30360   0.66550   0.01267  Uiso   1.00
H46    H     0.74110   0.24660   0.61130   0.01267  Uiso   1.00
H47    H     0.62020   0.11500   0.47380   0.01267  Uiso   1.00
H48    H     0.43600   0.03780   0.39340   0.01267  Uiso   1.00
H49    H     0.30480   0.10860   0.46080   0.01267  Uiso   1.00
H50    H     0.41400   0.06650   0.79250   0.01267  Uiso   1.00
H51    H     0.41100   0.13160   0.72680   0.01267  Uiso   1.00
H52    H     0.32590   0.99140   0.62950   0.01267  Uiso   1.00
H53    H     0.25890   0.87020   0.50550   0.01267  Uiso   1.00
H54    H     0.37980   0.85360   0.49480   0.01267  Uiso   1.00
H55    H     0.56400   0.95740   0.60180   0.01267  Uiso   1.00
H56    H     0.69520   0.15600   0.80380   0.01267  Uiso   1.00
C1     C     0.54090   0.21730   0.87680   0.01267  Uiso   1.00
C2     C     0.51350   0.30410   0.95360   0.01267  Uiso   1.00
C3     C     0.62510   0.37410   0.01580   0.01267  Uiso   1.00
C4     C     0.66530   0.44840   0.08750   0.01267  Uiso   1.00
C5     C     0.59250   0.45480   0.09690   0.01267  Uiso   1.00
C6     C     0.48280   0.38990   0.03630   0.01267  Uiso   1.00
C7     C     0.43740   0.31030   0.96410   0.01267  Uiso   1.00
C8     C     0.32200   0.23790   0.89470   0.01267  Uiso   1.00
C9     C     0.23450   0.22130   0.89220   0.01267  Uiso   1.00
C10    C     0.24010   0.27870   0.96080   0.01267  Uiso   1.00
C11    C     0.12710   0.14610   0.81800   0.01267  Uiso   1.00
C12    C     0.45910   0.33590   0.67640   0.01267  Uiso   1.00
C13    C     0.48650   0.44010   0.79060   0.01267  Uiso   1.00
C14    C     0.37490   0.39070   0.74900   0.01267  Uiso   1.00
C15    C     0.33470   0.42220   0.78310   0.01267  Uiso   1.00
C16    C     0.40750   0.50440   0.86230   0.01267  Uiso   1.00
C17    C     0.51720   0.55350   0.90710   0.01267  Uiso   1.00
C18    C     0.56260   0.52670   0.87290   0.01267  Uiso   1.00
C19    C     0.67800   0.57270   0.91590   0.01267  Uiso   1.00
C20    C     0.76550   0.65770   0.98680   0.01267  Uiso   1.00
C21    C     0.75990   0.72070   0.03860   0.01267  Uiso   1.00
C22    C     0.87290   0.69090   0.01900   0.01267  Uiso   1.00
C23    C     0.15950   0.62680   0.58590   0.01267  Uiso   1.00
C24    C     0.14950   0.70360   0.69010   0.01267  Uiso   1.00
C25    C     0.14170   0.76580   0.64070   0.01267  Uiso   1.00
C26    C     0.13910   0.83750   0.67220   0.01267  Uiso   1.00
C27    C     0.14210   0.84690   0.75440   0.01267  Uiso   1.00
C28    C     0.14640   0.78630   0.80350   0.01267  Uiso   1.00
C29    C     0.15380   0.71410   0.77670   0.01267  Uiso   1.00
C30    C     0.15680   0.64470   0.82270   0.01267  Uiso   1.00
C31    C     0.17090   0.64220   0.90770   0.01267  Uiso   1.00
C32    C     0.18210   0.71080   0.97070   0.01267  Uiso   1.00
C33    C     0.17190   0.56800   0.94090   0.01267  Uiso   1.00
C34    C     0.84050   0.42640   0.46730   0.01267  Uiso   1.00
C35    C     0.85050   0.54060   0.55410   0.01267  Uiso   1.00
C36    C     0.85830   0.49900   0.62410   0.01267  Uiso   1.00
C37    C     0.86090   0.53310   0.69840   0.01267  Uiso   1.00
C38    C     0.85790   0.61230   0.70480   0.01267  Uiso   1.00
C39    C     0.85360   0.65710   0.63990   0.01267  Uiso   1.00
C40    C     0.84620   0.62290   0.56030   0.01267  Uiso   1.00
C41    C     0.84320   0.66590   0.48790   0.01267  Uiso   1.00
C42    C     0.82910   0.73680   0.47130   0.01267  Uiso   1.00
C43    C     0.81790   0.78860   0.52870   0.01267  Uiso   1.00
C44    C     0.82810   0.76900   0.39610   0.01267  Uiso   1.00
C45    C     0.84050   0.41410   0.37320   0.01267  Uiso   1.00
C46    C     0.85050   0.30990   0.29640   0.01267  Uiso   1.00
C47    C     0.85830   0.35930   0.23420   0.01267  Uiso   1.00
C48    C     0.86090   0.32780   0.16250   0.01267  Uiso   1.00
C49    C     0.85790   0.24560   0.15310   0.01267  Uiso   1.00
C50    C     0.85360   0.19650   0.21370   0.01267  Uiso   1.00
C51    C     0.84620   0.22330   0.28590   0.01267  Uiso   1.00
C52    C     0.84320   0.17730   0.35530   0.01267  Uiso   1.00
C53    C     0.82910   0.09230   0.35780   0.01267  Uiso   1.00
C54    C     0.81790   0.02930   0.28920   0.01267  Uiso   1.00
C55    C     0.82810   0.05910   0.43200   0.01267  Uiso   1.00
C56    C     0.15950   0.53270   0.57360   0.01267  Uiso   1.00
C57    C     0.14950   0.44590   0.45940   0.01267  Uiso   1.00
C58    C     0.14170   0.37590   0.50100   0.01267  Uiso   1.00
C59    C     0.13910   0.30160   0.46690   0.01267  Uiso   1.00
C60    C     0.14210   0.29520   0.38770   0.01267  Uiso   1.00
C61    C     0.14640   0.36010   0.34290   0.01267  Uiso   1.00
C62    C     0.15380   0.43970   0.37710   0.01267  Uiso   1.00
C63    C     0.15680   0.51210   0.33410   0.01267  Uiso   1.00
C64    C     0.17090   0.52870   0.26320   0.01267  Uiso   1.00
C65    C     0.18210   0.47130   0.21140   0.01267  Uiso   1.00
C66    C     0.17190   0.60390   0.23100   0.01267  Uiso   1.00
C67    C     0.54090   0.32360   0.66410   0.01267  Uiso   1.00
C68    C     0.51350   0.20940   0.55990   0.01267  Uiso   1.00
C69    C     0.62510   0.25100   0.60930   0.01267  Uiso   1.00
C70    C     0.66530   0.21690   0.57780   0.01267  Uiso   1.00
C71    C     0.59250   0.13770   0.49560   0.01267  Uiso   1.00
C72    C     0.48280   0.09290   0.44650   0.01267  Uiso   1.00
C73    C     0.43740   0.12710   0.47330   0.01267  Uiso   1.00
C74    C     0.32200   0.08410   0.42730   0.01267  Uiso   1.00
C75    C     0.23450   0.01320   0.34230   0.01267  Uiso   1.00
C76    C     0.24010   0.96140   0.27930   0.01267  Uiso   1.00
C77    C     0.12710   0.98100   0.30910   0.01267  Uiso   1.00
C78    C     0.45910   0.12320   0.78270   0.01267  Uiso   1.00
C79    C     0.48650   0.04640   0.69590   0.01267  Uiso   1.00
C80    C     0.37490   0.98420   0.62590   0.01267  Uiso   1.00
C81    C     0.33470   0.91250   0.55160   0.01267  Uiso   1.00
C82    C     0.40750   0.90310   0.54520   0.01267  Uiso   1.00
C83    C     0.51720   0.96370   0.61010   0.01267  Uiso   1.00
C84    C     0.56260   0.03590   0.68970   0.01267  Uiso   1.00
C85    C     0.67800   0.10530   0.76210   0.01267  Uiso   1.00
C86    C     0.76550   0.10780   0.77870   0.01267  Uiso   1.00
C87    C     0.75990   0.03920   0.72130   0.01267  Uiso   1.00
C88    C     0.87290   0.18200   0.85390   0.01267  Uiso   1.00
N1     N     0.23770   0.31960   0.00890   0.01267  Uiso   1.00
N2     N     0.03710   0.08030   0.76040   0.01267  Uiso   1.00
N3     N     0.76230   0.77120   0.08190   0.01267  Uiso   1.00
N4     N     0.96290   0.72330   0.04320   0.01267  Uiso   1.00
N5     N     0.18930   0.75890   0.02120   0.01267  Uiso   1.00
N6     N     0.18010   0.51040   0.97330   0.01267  Uiso   1.00
N7     N     0.81070   0.83190   0.56960   0.01267  Uiso   1.00
N8     N     0.81990   0.79320   0.33030   0.01267  Uiso   1.00
N9     N     0.81070   0.97880   0.24110   0.01267  Uiso   1.00
N10    N     0.81990   0.02670   0.48960   0.01267  Uiso   1.00
N11    N     0.18930   0.43040   0.16810   0.01267  Uiso   1.00
N12    N     0.18010   0.66970   0.20680   0.01267  Uiso   1.00
N13    N     0.23770   0.91810   0.22880   0.01267  Uiso   1.00
N14    N     0.03710   0.95680   0.27670   0.01267  Uiso   1.00
N15    N     0.76230   0.99110   0.68040   0.01267  Uiso   1.00
N16    N     0.96290   0.23960   0.91970   0.01267  Uiso   1.00
O1     O     0.46560   0.22760   0.88360   0.01267  Uiso   1.00
O2     O     0.53440   0.41800   0.76200   0.01267  Uiso   1.00
O3     O     0.15600   0.63360   0.66800   0.01267  Uiso   1.00
O4     O     0.84400   0.51200   0.47760   0.01267  Uiso   1.00
O5     O     0.84400   0.33200   0.36640   0.01267  Uiso   1.00
O6     O     0.15600   0.52240   0.48800   0.01267  Uiso   1.00
O7     O     0.46560   0.23800   0.58200   0.01267  Uiso   1.00
O8     O     0.53440   0.11640   0.77240   0.01267  Uiso   1.00
Sb1    Sb    0.00000   0.69019   0.30981   0.01267  Uiso   1.00
F1     F     0.89340   0.60300   0.32900   0.01267  Uiso   1.00
F2     F     0.04950   0.78320   0.41010   0.01267  Uiso   1.00
F3     F     0.89700   0.70950   0.22310   0.01267  Uiso   1.00
F4     F     0.10660   0.67100   0.39700   0.01267  Uiso   1.00
F5     F     0.95050   0.58990   0.21680   0.01267  Uiso   1.00
F6     F     0.10300   0.77690   0.29050   0.01267  Uiso   1.00
Sb2    Sb    0.00000   0.30981   0.69019   0.01267  Uiso   1.00
F7     F     0.10660   0.43560   0.70960   0.01267  Uiso   1.00
F8     F     0.95050   0.36060   0.73370   0.01267  Uiso   1.00
F9     F     0.10300   0.32610   0.81250   0.01267  Uiso   1.00
F10    F     0.89340   0.29040   0.56440   0.01267  Uiso   1.00
F11    F     0.04950   0.26630   0.63940   0.01267  Uiso   1.00
F12    F     0.89700   0.18750   0.67390   0.01267  Uiso   1.00
Sb3    Sb    0.11962   0.05981   0.55981   0.01267  Uiso   1.00
F13    F     0.22600   0.07900   0.68560   0.01267  Uiso   1.00
F14    F     0.12690   0.16010   0.61060   0.01267  Uiso   1.00
F15    F     0.01360   0.97310   0.57610   0.01267  Uiso   1.00
F16    F     0.22600   0.14700   0.54040   0.01267  Uiso   1.00
F17    F     0.12690   0.96680   0.51630   0.01267  Uiso   1.00
F18    F     0.01360   0.04050   0.43750   0.01267  Uiso   1.00
Sb4    Sb    0.88038   0.44019   0.94019   0.01267  Uiso   1.00
F19    F     0.77400   0.45960   0.85300   0.01267  Uiso   1.00
F20    F     0.87310   0.48370   0.03320   0.01267  Uiso   1.00
F21    F     0.98640   0.56250   0.95950   0.01267  Uiso   1.00
F22    F     0.77400   0.31440   0.92100   0.01267  Uiso   1.00
F23    F     0.87310   0.38940   0.83990   0.01267  Uiso   1.00
F24    F     0.98640   0.42390   0.02690   0.01267  Uiso   1.00
