data_AMAFUQ_clean
_audit_creation_date              2014-07-02
_audit_creation_method            'Materials Studio'
_symmetry_space_group_name_H-M    'P1'
_symmetry_Int_Tables_number       1
_symmetry_cell_setting            triclinic
loop_
_symmetry_equiv_pos_as_xyz
  x,y,z
_cell_length_a                    7.7402
_cell_length_b                    12.7309
_cell_length_c                    12.7309
_cell_angle_alpha                 63.9986
_cell_angle_beta                  78.3074
_cell_angle_gamma                 101.6930
loop_
_atom_site_label
_atom_site_type_symbol
_atom_site_fract_x
_atom_site_fract_y
_atom_site_fract_z
_atom_site_U_iso_or_equiv
_atom_site_adp_type
_atom_site_occupancy
Cu1    Cu    0.00000   0.00000   0.50000   0.01267  Uiso   1.00
Cu2    Cu    0.50000   0.50000   0.50000   0.01267  Uiso   1.00
Cu3    Cu    0.00000   0.50000   0.00000   0.01267  Uiso   1.00
H1     H     0.23080   0.84520   0.51200   0.01267  Uiso   1.00
H2     H     0.03310   0.61210   0.39890   0.01267  Uiso   1.00
H3     H     0.77670   0.84120   0.41890   0.01267  Uiso   1.00
H4     H     0.74280   0.51200   0.64280   0.01267  Uiso   1.00
H5     H     0.43200   0.39890   0.98900   0.01267  Uiso   1.00
H6     H     0.19560   0.41890   0.73990   0.01267  Uiso   1.00
H7     H     0.38560   0.64280   0.84520   0.01267  Uiso   1.00
H8     H     0.42100   0.98900   0.61210   0.01267  Uiso   1.00
H9     H     0.93550   0.73990   0.84120   0.01267  Uiso   1.00
H10    H     0.76920   0.15480   0.48800   0.01267  Uiso   1.00
H11    H     0.96690   0.38790   0.60110   0.01267  Uiso   1.00
H12    H     0.22330   0.15880   0.58110   0.01267  Uiso   1.00
H13    H     0.25720   0.48800   0.35720   0.01267  Uiso   1.00
H14    H     0.56800   0.60110   0.01100   0.01267  Uiso   1.00
H15    H     0.80440   0.58110   0.26010   0.01267  Uiso   1.00
H16    H     0.61440   0.35720   0.15480   0.01267  Uiso   1.00
H17    H     0.57900   0.01100   0.38790   0.01267  Uiso   1.00
H18    H     0.06450   0.26010   0.15880   0.01267  Uiso   1.00
C1     C     0.14083   0.81256   0.48377   0.01267  Uiso   1.00
C2     C     0.02400   0.67550   0.41790   0.01267  Uiso   1.00
C3     C     0.15530   0.71760   0.46180   0.01267  Uiso   1.00
C4     C     0.31440   0.66850   0.48470   0.01267  Uiso   1.00
C5     C     0.87780   0.81020   0.42780   0.01267  Uiso   1.00
C6     C     0.62460   0.48377   0.70367   0.01267  Uiso   1.00
C7     C     0.44190   0.41790   0.90660   0.01267  Uiso   1.00
C8     C     0.61710   0.46180   0.82060   0.01267  Uiso   1.00
C9     C     0.79910   0.48470   0.84680   0.01267  Uiso   1.00
C10    C     0.30560   0.42780   0.76200   0.01267  Uiso   1.00
C11    C     0.32827   0.70367   0.81256   0.01267  Uiso   1.00
C12    C     0.34850   0.90660   0.67550   0.01267  Uiso   1.00
C13    C     0.43770   0.82060   0.71760   0.01267  Uiso   1.00
C14    C     0.64590   0.84680   0.66850   0.01267  Uiso   1.00
C15    C     0.06760   0.76200   0.81020   0.01267  Uiso   1.00
C16    C     0.85917   0.18744   0.51623   0.01267  Uiso   1.00
C17    C     0.97600   0.32450   0.58210   0.01267  Uiso   1.00
C18    C     0.84470   0.28240   0.53820   0.01267  Uiso   1.00
C19    C     0.68560   0.33150   0.51530   0.01267  Uiso   1.00
C20    C     0.12220   0.18980   0.57220   0.01267  Uiso   1.00
C21    C     0.37540   0.51623   0.29633   0.01267  Uiso   1.00
C22    C     0.55810   0.58210   0.09340   0.01267  Uiso   1.00
C23    C     0.38290   0.53820   0.17940   0.01267  Uiso   1.00
C24    C     0.20090   0.51530   0.15320   0.01267  Uiso   1.00
C25    C     0.69440   0.57220   0.23800   0.01267  Uiso   1.00
C26    C     0.67173   0.29633   0.18744   0.01267  Uiso   1.00
C27    C     0.65150   0.09340   0.32450   0.01267  Uiso   1.00
C28    C     0.56230   0.17940   0.28240   0.01267  Uiso   1.00
C29    C     0.35410   0.15320   0.33150   0.01267  Uiso   1.00
C30    C     0.93240   0.23800   0.18980   0.01267  Uiso   1.00
N1     N     0.00252   0.86047   0.46601   0.01267  Uiso   1.00
N2     N     0.88330   0.72130   0.40130   0.01267  Uiso   1.00
N3     N     0.46853   0.46601   0.67352   0.01267  Uiso   1.00
N4     N     0.28460   0.40130   0.87740   0.01267  Uiso   1.00
N5     N     0.14205   0.67352   0.86047   0.01267  Uiso   1.00
N6     N     0.16200   0.87740   0.72130   0.01267  Uiso   1.00
N7     N     0.99748   0.13953   0.53399   0.01267  Uiso   1.00
N8     N     0.11670   0.27870   0.59870   0.01267  Uiso   1.00
N9     N     0.53147   0.53399   0.32648   0.01267  Uiso   1.00
N10    N     0.71540   0.59870   0.12260   0.01267  Uiso   1.00
N11    N     0.85795   0.32648   0.13953   0.01267  Uiso   1.00
N12    N     0.83800   0.12260   0.27870   0.01267  Uiso   1.00
O1     O     0.29288   0.56251   0.49397   0.01267  Uiso   1.00
O2     O     0.44750   0.73080   0.49390   0.01267  Uiso   1.00
O3     O     0.78685   0.49397   0.94352   0.01267  Uiso   1.00
O4     O     0.94140   0.49390   0.77530   0.01267  Uiso   1.00
O5     O     0.73037   0.94352   0.56251   0.01267  Uiso   1.00
O6     O     0.71670   0.77530   0.73080   0.01267  Uiso   1.00
O7     O     0.70712   0.43749   0.50603   0.01267  Uiso   1.00
O8     O     0.55250   0.26920   0.50610   0.01267  Uiso   1.00
O9     O     0.21315   0.50603   0.05648   0.01267  Uiso   1.00
O10    O     0.05860   0.50610   0.22470   0.01267  Uiso   1.00
O11    O     0.26963   0.05648   0.43749   0.01267  Uiso   1.00
O12    O     0.28330   0.22470   0.26920   0.01267  Uiso   1.00
