data_YUBFUX_clean
_audit_creation_date              2014-07-02
_audit_creation_method            'Materials Studio'
_symmetry_space_group_name_H-M    'P1'
_symmetry_Int_Tables_number       1
_symmetry_cell_setting            triclinic
loop_
_symmetry_equiv_pos_as_xyz
  x,y,z
_cell_length_a                    9.7902
_cell_length_b                    11.3728
_cell_length_c                    11.3728
_cell_angle_alpha                 67.8835
_cell_angle_beta                  73.3247
_cell_angle_gamma                 106.6750
loop_
_atom_site_label
_atom_site_type_symbol
_atom_site_fract_x
_atom_site_fract_y
_atom_site_fract_z
_atom_site_U_iso_or_equiv
_atom_site_adp_type
_atom_site_occupancy
Zn1    Zn    0.37484   0.62484   0.75032   0.01267  Uiso   1.00
Zn2    Zn    0.12516   0.75032   0.62484   0.01267  Uiso   1.00
Zn3    Zn    0.75000   0.62484   0.62484   0.01267  Uiso   1.00
Zn4    Zn    0.62516   0.37516   0.24968   0.01267  Uiso   1.00
Zn5    Zn    0.87484   0.24968   0.37516   0.01267  Uiso   1.00
Zn6    Zn    0.25000   0.37517   0.37516   0.01267  Uiso   1.00
H1     H     0.35330   0.34910   0.73140   0.01267  Uiso   1.00
H2     H     0.39130   0.33190   0.59690   0.01267  Uiso   1.00
H3     H     0.21680   0.24970   0.71840   0.01267  Uiso   1.00
H4     H     0.08470   0.73140   0.91950   0.01267  Uiso   1.00
H5     H     0.98820   0.59690   0.07120   0.01267  Uiso   1.00
H6     H     0.93520   0.71840   0.03190   0.01267  Uiso   1.00
H7     H     0.00420   0.91950   0.34910   0.01267  Uiso   1.00
H8     H     0.05940   0.07120   0.33190   0.01267  Uiso   1.00
H9     H     0.96710   0.03190   0.24970   0.01267  Uiso   1.00
H10    H     0.41530   0.91950   0.73140   0.01267  Uiso   1.00
H11    H     0.51180   0.07120   0.59690   0.01267  Uiso   1.00
H12    H     0.56480   0.03190   0.71840   0.01267  Uiso   1.00
H13    H     0.49580   0.34910   0.91950   0.01267  Uiso   1.00
H14    H     0.44060   0.33190   0.07120   0.01267  Uiso   1.00
H15    H     0.53290   0.24970   0.03190   0.01267  Uiso   1.00
H16    H     0.14670   0.73140   0.34910   0.01267  Uiso   1.00
H17    H     0.10870   0.59690   0.33190   0.01267  Uiso   1.00
H18    H     0.28320   0.71840   0.24970   0.01267  Uiso   1.00
H19    H     0.64670   0.65090   0.26860   0.01267  Uiso   1.00
H20    H     0.60870   0.66810   0.40310   0.01267  Uiso   1.00
H21    H     0.78320   0.75030   0.28160   0.01267  Uiso   1.00
H22    H     0.91530   0.26860   0.08050   0.01267  Uiso   1.00
H23    H     0.01180   0.40310   0.92880   0.01267  Uiso   1.00
H24    H     0.06480   0.28160   0.96810   0.01267  Uiso   1.00
H25    H     0.99580   0.08050   0.65090   0.01267  Uiso   1.00
H26    H     0.94060   0.92880   0.66810   0.01267  Uiso   1.00
H27    H     0.03290   0.96810   0.75030   0.01267  Uiso   1.00
H28    H     0.58470   0.08050   0.26860   0.01267  Uiso   1.00
H29    H     0.48820   0.92880   0.40310   0.01267  Uiso   1.00
H30    H     0.43520   0.96810   0.28160   0.01267  Uiso   1.00
H31    H     0.50420   0.65090   0.08050   0.01267  Uiso   1.00
H32    H     0.55940   0.66810   0.92880   0.01267  Uiso   1.00
H33    H     0.46710   0.75030   0.96810   0.01267  Uiso   1.00
H34    H     0.85330   0.26860   0.65090   0.01267  Uiso   1.00
H35    H     0.89130   0.40310   0.66810   0.01267  Uiso   1.00
H36    H     0.71680   0.28160   0.75030   0.01267  Uiso   1.00
C1     C     0.28092   0.45792   0.59596   0.01267  Uiso   1.00
C2     C     0.31350   0.33633   0.66703   0.01267  Uiso   1.00
C3     C     0.87688   0.59596   0.94612   0.01267  Uiso   1.00
C4     C     0.98053   0.66703   0.99664   0.01267  Uiso   1.00
C5     C     0.82300   0.94612   0.45792   0.01267  Uiso   1.00
C6     C     0.97717   0.99664   0.33633   0.01267  Uiso   1.00
C7     C     0.62312   0.94612   0.59596   0.01267  Uiso   1.00
C8     C     0.51947   0.99664   0.66703   0.01267  Uiso   1.00
C9     C     0.67700   0.45792   0.94612   0.01267  Uiso   1.00
C10    C     0.52283   0.33633   0.99664   0.01267  Uiso   1.00
C11    C     0.21908   0.59596   0.45792   0.01267  Uiso   1.00
C12    C     0.18650   0.66703   0.33633   0.01267  Uiso   1.00
C13    C     0.71908   0.54208   0.40404   0.01267  Uiso   1.00
C14    C     0.68650   0.66367   0.33297   0.01267  Uiso   1.00
C15    C     0.12312   0.40404   0.05388   0.01267  Uiso   1.00
C16    C     0.01947   0.33297   0.00336   0.01267  Uiso   1.00
C17    C     0.17700   0.05388   0.54208   0.01267  Uiso   1.00
C18    C     0.02283   0.00336   0.66367   0.01267  Uiso   1.00
C19    C     0.37688   0.05388   0.40404   0.01267  Uiso   1.00
C20    C     0.48053   0.00336   0.33297   0.01267  Uiso   1.00
C21    C     0.32300   0.54208   0.05388   0.01267  Uiso   1.00
C22    C     0.47717   0.66367   0.00336   0.01267  Uiso   1.00
C23    C     0.78092   0.40404   0.54208   0.01267  Uiso   1.00
C24    C     0.81350   0.33297   0.66367   0.01267  Uiso   1.00
N1     N     0.27112   0.54973   0.63917   0.01267  Uiso   1.00
N2     N     0.91029   0.63917   0.81110   0.01267  Uiso   1.00
N3     N     0.72139   0.81110   0.54973   0.01267  Uiso   1.00
N4     N     0.58971   0.81110   0.63917   0.01267  Uiso   1.00
N5     N     0.77861   0.54973   0.81110   0.01267  Uiso   1.00
N6     N     0.22888   0.63917   0.54973   0.01267  Uiso   1.00
N7     N     0.72888   0.45027   0.36083   0.01267  Uiso   1.00
N8     N     0.08971   0.36083   0.18890   0.01267  Uiso   1.00
N9     N     0.27861   0.18890   0.45027   0.01267  Uiso   1.00
N10    N     0.41029   0.18890   0.36083   0.01267  Uiso   1.00
N11    N     0.22139   0.45027   0.18890   0.01267  Uiso   1.00
N12    N     0.77112   0.36083   0.45027   0.01267  Uiso   1.00
N13    N     0.25000   0.48300   0.48299   0.01267  Uiso   1.00
N14    N     0.73299   0.48299   0.03401   0.01267  Uiso   1.00
N15    N     0.76700   0.03401   0.48300   0.01267  Uiso   1.00
N16    N     0.75000   0.51701   0.51700   0.01267  Uiso   1.00
N17    N     0.26700   0.51700   0.96599   0.01267  Uiso   1.00
N18    N     0.23299   0.96599   0.51701   0.01267  Uiso   1.00
F1     F     0.51310   0.52620   0.73690   0.01267  Uiso   1.00
F2     F     0.25000   0.73690   0.73690   0.01267  Uiso   1.00
F3     F     0.98690   0.73690   0.52620   0.01267  Uiso   1.00
F4     F     0.48690   0.47380   0.26310   0.01267  Uiso   1.00
F5     F     0.75000   0.26310   0.26310   0.01267  Uiso   1.00
F6     F     0.01310   0.26310   0.47380   0.01267  Uiso   1.00
