data_SODKON_clean
_audit_creation_date              2015-10-16
_audit_creation_method            'Materials Studio'
_symmetry_space_group_name_H-M    'P1'
_symmetry_Int_Tables_number       1
_symmetry_cell_setting            triclinic
loop_
_symmetry_equiv_pos_as_xyz
  x,y,z
_cell_length_a                    8.1509
_cell_length_b                    11.7896
_cell_length_c                    11.7896
_cell_angle_alpha                 120.0000
_cell_angle_beta                  90.0000
_cell_angle_gamma                 90.0000
loop_
_atom_site_label
_atom_site_type_symbol
_atom_site_fract_x
_atom_site_fract_y
_atom_site_fract_z
_atom_site_U_iso_or_equiv
_atom_site_adp_type
_atom_site_occupancy
Cu1    Cu    0.96882   0.68344   0.54697   0.01267  Uiso   1.00
Cu2    Cu    0.46882   0.31656   0.86353   0.01267  Uiso   1.00
Cu3    Cu    0.96882   0.45303   0.13647   0.01267  Uiso   1.00
Cu4    Cu    0.46882   0.54697   0.68344   0.01267  Uiso   1.00
Cu5    Cu    0.96882   0.86353   0.31656   0.01267  Uiso   1.00
Cu6    Cu    0.46882   0.13647   0.45303   0.01267  Uiso   1.00
H1     H     0.00350   0.52560   0.80520   0.01267  Uiso   1.00
H2     H     0.46540   0.25240   0.17070   0.01267  Uiso   1.00
H3     H     0.04280   0.11560   0.57010   0.01267  Uiso   1.00
H4     H     0.36010   0.85920   0.47720   0.01267  Uiso   1.00
H5     H     0.86010   0.47720   0.85920   0.01267  Uiso   1.00
H6     H     0.86010   0.14080   0.61800   0.01267  Uiso   1.00
H7     H     0.96670   0.23730   0.17320   0.01267  Uiso   1.00
H8     H     0.46540   0.82930   0.08170   0.01267  Uiso   1.00
H9     H     0.36010   0.52280   0.38200   0.01267  Uiso   1.00
H10    H     0.46670   0.76270   0.93590   0.01267  Uiso   1.00
H11    H     0.54280   0.54550   0.42990   0.01267  Uiso   1.00
H12    H     0.04280   0.45450   0.88440   0.01267  Uiso   1.00
H13    H     0.36010   0.61800   0.14080   0.01267  Uiso   1.00
H14    H     0.54280   0.88440   0.45450   0.01267  Uiso   1.00
H15    H     0.46540   0.91830   0.74760   0.01267  Uiso   1.00
H16    H     0.04280   0.42990   0.54550   0.01267  Uiso   1.00
H17    H     0.50350   0.80520   0.52560   0.01267  Uiso   1.00
H18    H     0.96540   0.17070   0.25240   0.01267  Uiso   1.00
H19    H     0.50350   0.72040   0.19480   0.01267  Uiso   1.00
H20    H     0.96670   0.93590   0.76270   0.01267  Uiso   1.00
H21    H     0.46670   0.17320   0.23730   0.01267  Uiso   1.00
H22    H     0.54280   0.57010   0.11560   0.01267  Uiso   1.00
H23    H     0.50350   0.47440   0.27960   0.01267  Uiso   1.00
H24    H     0.00350   0.19480   0.72040   0.01267  Uiso   1.00
H25    H     0.96540   0.74760   0.91830   0.01267  Uiso   1.00
H26    H     0.96540   0.08170   0.82930   0.01267  Uiso   1.00
H27    H     0.00350   0.27960   0.47440   0.01267  Uiso   1.00
H28    H     0.96670   0.82680   0.06410   0.01267  Uiso   1.00
H29    H     0.86010   0.38200   0.52280   0.01267  Uiso   1.00
H30    H     0.46670   0.06410   0.82680   0.01267  Uiso   1.00
C1     C     0.46880   0.63710   0.12370   0.01267  Uiso   1.00
C2     C     0.96880   0.36290   0.48660   0.01267  Uiso   1.00
C3     C     0.46880   0.99980   0.64140   0.01267  Uiso   1.00
C4     C     0.96880   0.35840   0.35860   0.01267  Uiso   1.00
C5     C     0.46880   0.35860   0.35840   0.01267  Uiso   1.00
C6     C     0.96880   0.64140   0.99980   0.01267  Uiso   1.00
C7     C     0.96880   0.00020   0.64160   0.01267  Uiso   1.00
C8     C     0.96880   0.51340   0.87630   0.01267  Uiso   1.00
C9     C     0.96880   0.12370   0.63710   0.01267  Uiso   1.00
C10    C     0.46880   0.87630   0.51340   0.01267  Uiso   1.00
C11    C     0.46880   0.64160   0.00020   0.01267  Uiso   1.00
C12    C     0.46880   0.48660   0.36290   0.01267  Uiso   1.00
S1     S     0.96869   0.49600   0.34877   0.01267  Uiso   1.00
S2     S     0.96869   0.65123   0.14723   0.01267  Uiso   1.00
S3     S     0.46869   0.14723   0.65123   0.01267  Uiso   1.00
S4     S     0.46869   0.50400   0.85277   0.01267  Uiso   1.00
S5     S     0.96869   0.85277   0.50400   0.01267  Uiso   1.00
S6     S     0.46869   0.34877   0.49600   0.01267  Uiso   1.00
I1     I     0.21879   0.70838   0.70843   0.01267  Uiso   1.00
I2     I     0.21879   0.29157   0.99995   0.01267  Uiso   1.00
I3     I     0.21879   0.00005   0.29162   0.01267  Uiso   1.00
I4     I     0.71879   0.29162   0.00005   0.01267  Uiso   1.00
I5     I     0.71879   0.70843   0.70838   0.01267  Uiso   1.00
I6     I     0.71879   0.99995   0.29157   0.01267  Uiso   1.00
N1     N     0.46700   0.99330   0.75180   0.01267  Uiso   1.00
N2     N     0.96700   0.75180   0.99330   0.01267  Uiso   1.00
N3     N     0.46700   0.75850   0.00670   0.01267  Uiso   1.00
N4     N     0.96700   0.24150   0.24820   0.01267  Uiso   1.00
N5     N     0.46700   0.24820   0.24150   0.01267  Uiso   1.00
N6     N     0.96700   0.00670   0.75850   0.01267  Uiso   1.00
