data_IDIWOH06_clean
_audit_creation_date              2015-10-16
_audit_creation_method            'Materials Studio'
_symmetry_space_group_name_H-M    'P1'
_symmetry_Int_Tables_number       1
_symmetry_cell_setting            triclinic
loop_
_symmetry_equiv_pos_as_xyz
  x,y,z
_cell_length_a                    6.8543
_cell_length_b                    11.2405
_cell_length_c                    11.2405
_cell_angle_alpha                 76.8711
_cell_angle_beta                  72.3093
_cell_angle_gamma                 72.3093
loop_
_atom_site_label
_atom_site_type_symbol
_atom_site_fract_x
_atom_site_fract_y
_atom_site_fract_z
_atom_site_U_iso_or_equiv
_atom_site_adp_type
_atom_site_occupancy
C1     C     0.13896   0.73000   0.99608   0.01267  Uiso   1.00
C2     C     0.36498   0.48938   0.43527   0.01267  Uiso   1.00
C3     C     0.86499   0.93523   0.98942   0.01267  Uiso   1.00
C4     C     0.21127   0.93323   0.00633   0.01267  Uiso   1.00
C5     C     0.63896   0.49603   0.23005   0.01267  Uiso   1.00
C6     C     0.79880   0.06452   0.99132   0.01267  Uiso   1.00
C7     C     0.93848   0.12924   0.00034   0.01267  Uiso   1.00
C8     C     0.07148   0.86867   0.99715   0.01267  Uiso   1.00
C9     C     0.86502   0.26783   0.00185   0.01267  Uiso   1.00
C10    C     0.64527   0.50754   0.56298   0.01267  Uiso   1.00
C11    C     0.14527   0.06294   0.00759   0.01267  Uiso   1.00
C12    C     0.43847   0.50029   0.62929   0.01267  Uiso   1.00
C13    C     0.36501   0.50181   0.76787   0.01267  Uiso   1.00
C14    C     0.29880   0.49127   0.56456   0.01267  Uiso   1.00
C15    C     0.57148   0.49711   0.36872   0.01267  Uiso   1.00
C16    C     0.71127   0.50628   0.43328   0.01267  Uiso   1.00
H1     H     0.37070   0.88003   0.01253   0.01267  Uiso   1.00
H2     H     0.87070   0.51249   0.38007   0.01267  Uiso   1.00
H3     H     0.25127   0.11468   0.01482   0.01267  Uiso   1.00
H4     H     0.75906   0.88367   0.98186   0.01267  Uiso   1.00
H5     H     0.75128   0.51476   0.61472   0.01267  Uiso   1.00
H6     H     0.63919   0.11755   0.98552   0.01267  Uiso   1.00
H7     H     0.25906   0.48182   0.38371   0.01267  Uiso   1.00
H8     H     0.13918   0.48548   0.61759   0.01267  Uiso   1.00
O1     O     0.50073   0.49967   0.82593   0.01267  Uiso   1.00
O2     O     0.67020   0.31940   0.00472   0.01267  Uiso   1.00
O3     O     0.00143   0.67843   0.98875   0.01267  Uiso   1.00
O4     O     0.82831   0.50289   0.17183   0.01267  Uiso   1.00
O5     O     0.74540   0.55313   0.94451   0.01267  Uiso   1.00
O6     O     0.32831   0.67178   0.00294   0.01267  Uiso   1.00
O7     O     0.24541   0.44446   0.05318   0.01267  Uiso   1.00
O8     O     0.00073   0.32589   0.99971   0.01267  Uiso   1.00
O9     O     0.17020   0.50467   0.81945   0.01267  Uiso   1.00
O10    O     0.50143   0.48871   0.17848   0.01267  Uiso   1.00
V1     V     0.46964   0.48814   0.00976   0.01267  Uiso   1.00
V2     V     0.96964   0.50971   0.98819   0.01267  Uiso   1.00
