data_ZONCAI_charged
_audit_creation_date              2015-10-16
_audit_creation_method            'Materials Studio'
_symmetry_space_group_name_H-M    'P1'
_symmetry_Int_Tables_number       1
_symmetry_cell_setting            triclinic
loop_
_symmetry_equiv_pos_as_xyz
  x,y,z
_cell_length_a                    11.7820
_cell_length_b                    13.8540
_cell_length_c                    13.9532
_cell_angle_alpha                 90.0000
_cell_angle_beta                  90.0000
_cell_angle_gamma                 111.0790
loop_
_atom_site_label
_atom_site_type_symbol
_atom_site_fract_x
_atom_site_fract_y
_atom_site_fract_z
_atom_site_U_iso_or_equiv
_atom_site_adp_type
_atom_site_occupancy
Na1    Na    0.00000   0.00000   0.00000   0.01267  Uiso   1.00
Na2    Na    0.50000   0.50000   0.50000   0.01267  Uiso   1.00
Na3    Na    0.00000   0.50000   0.50000   0.01267  Uiso   1.00
Na4    Na    0.50000   0.00000   0.00000   0.01267  Uiso   1.00
Zn1    Zn    0.25000   0.50000   0.61939   0.01267  Uiso   1.00
Zn2    Zn    0.75000   0.50000   0.38061   0.01267  Uiso   1.00
Zn3    Zn    0.75000  -0.00000   0.88564   0.01267  Uiso   1.00
Zn4    Zn    0.25000   0.00000   0.11436   0.01267  Uiso   1.00
H1     H     0.87350   0.56110   0.76220   0.01267  Uiso   1.00
H2     H     0.71820   0.71650   0.15730   0.01267  Uiso   1.00
H3     H     0.72000   0.65800   0.81590   0.01267  Uiso   1.00
H4     H     0.24490   0.15470   0.69980   0.01267  Uiso   1.00
H5     H     0.27030   0.93350   0.62500   0.01267  Uiso   1.00
H6     H     0.08960   0.93290   0.74630   0.01267  Uiso   1.00
H7     H     0.05640   0.21870   0.03650   0.01267  Uiso   1.00
H8     H     0.75030   0.17900   0.41020   0.01267  Uiso   1.00
H9     H     0.29020   0.42560   0.10550   0.01267  Uiso   1.00
H10    H     0.70980   0.57440   0.89450   0.01267  Uiso   1.00
H11    H     0.77030   0.93350   0.37500   0.01267  Uiso   1.00
H12    H     0.55340   0.72730   0.46410   0.01267  Uiso   1.00
H13    H     0.78180   0.28350   0.15730   0.01267  Uiso   1.00
H14    H     0.25780   0.77090   0.35770   0.01267  Uiso   1.00
H15    H     0.55640   0.21870   0.96350   0.01267  Uiso   1.00
H16    H     0.24220   0.22910   0.35770   0.01267  Uiso   1.00
H17    H     0.12650   0.43890   0.23780   0.01267  Uiso   1.00
H18    H     0.75780   0.77090   0.64230   0.01267  Uiso   1.00
H19    H     0.37350   0.56110   0.23780   0.01267  Uiso   1.00
H20    H     0.76150   0.31010   0.92420   0.01267  Uiso   1.00
H21    H     0.74490   0.15470   0.30020   0.01267  Uiso   1.00
H22    H     0.72970   0.06650   0.37500   0.01267  Uiso   1.00
H23    H     0.94660   0.27270   0.46410   0.01267  Uiso   1.00
H24    H     0.78000   0.34200   0.81590   0.01267  Uiso   1.00
H25    H     0.58960   0.93290   0.25370   0.01267  Uiso   1.00
H26    H     0.74970   0.82100   0.41020   0.01267  Uiso   1.00
H27    H     0.21820   0.71650   0.84270   0.01267  Uiso   1.00
H28    H     0.74220   0.22910   0.64230   0.01267  Uiso   1.00
H29    H     0.05340   0.72730   0.53590   0.01267  Uiso   1.00
H30    H     0.22970   0.06650   0.62500   0.01267  Uiso   1.00
H31    H     0.44660   0.27270   0.53590   0.01267  Uiso   1.00
H32    H     0.94360   0.78130   0.96350   0.01267  Uiso   1.00
H33    H     0.73850   0.68990   0.92420   0.01267  Uiso   1.00
H34    H     0.28180   0.28350   0.84270   0.01267  Uiso   1.00
H35    H     0.25030   0.17900   0.58980   0.01267  Uiso   1.00
H36    H     0.79020   0.42560   0.89450   0.01267  Uiso   1.00
H37    H     0.41040   0.06710   0.74630   0.01267  Uiso   1.00
H38    H     0.26150   0.31010   0.07580   0.01267  Uiso   1.00
H39    H     0.24970   0.82100   0.58980   0.01267  Uiso   1.00
H40    H     0.28000   0.34200   0.18410   0.01267  Uiso   1.00
H41    H     0.25510   0.84530   0.69980   0.01267  Uiso   1.00
H42    H     0.22000   0.65800   0.18410   0.01267  Uiso   1.00
H43    H     0.62650   0.43890   0.76220   0.01267  Uiso   1.00
H44    H     0.75510   0.84530   0.30020   0.01267  Uiso   1.00
H45    H     0.44360   0.78130   0.03650   0.01267  Uiso   1.00
H46    H     0.23850   0.68990   0.07580   0.01267  Uiso   1.00
H47    H     0.20980   0.57440   0.10550   0.01267  Uiso   1.00
H48    H     0.91040   0.06710   0.25370   0.01267  Uiso   1.00
C1     C     0.81380   0.15094   0.03023   0.01267  Uiso   1.00
C2     C     0.63560   0.70480   0.15177   0.01267  Uiso   1.00
C3     C     0.92860   0.61080   0.80090   0.01267  Uiso   1.00
C4     C     0.90500   0.16370   0.36080   0.01267  Uiso   1.00
C5     C     0.15860   0.21350   0.35770   0.01267  Uiso   1.00
C6     C     0.04080   0.88410   0.70350   0.01267  Uiso   1.00
C7     C     0.18830   0.34897   0.48390   0.01267  Uiso   1.00
C8     C     0.84140   0.78650   0.64230   0.01267  Uiso   1.00
C9     C     0.68830   0.34897   0.51610   0.01267  Uiso   1.00
C10    C     0.36440   0.29520   0.84823   0.01267  Uiso   1.00
C11    C     0.58510   0.13976   0.70498   0.01267  Uiso   1.00
C12    C     0.08510   0.13976   0.29502   0.01267  Uiso   1.00
C13    C     0.11450   0.33380   0.13330   0.01267  Uiso   1.00
C14    C     0.86030   0.91120   0.77660   0.01267  Uiso   1.00
C15    C     0.65860   0.21350   0.64230   0.01267  Uiso   1.00
C16    C     0.09600   0.76348   0.91238   0.01267  Uiso   1.00
C17    C     0.68620   0.84906   0.03023   0.01267  Uiso   1.00
C18    C     0.09160   0.56640   0.72167   0.01267  Uiso   1.00
C19    C     0.95920   0.11590   0.29650   0.01267  Uiso   1.00
C20    C     0.61450   0.33380   0.86670   0.01267  Uiso   1.00
C21    C     0.59500   0.83630   0.36080   0.01267  Uiso   1.00
C22    C     0.10690   0.26461   0.42105   0.01267  Uiso   1.00
C23    C     0.89310   0.73539   0.57895   0.01267  Uiso   1.00
C24    C     0.81170   0.65103   0.51610   0.01267  Uiso   1.00
C25    C     0.94830   0.37100   0.20746   0.01267  Uiso   1.00
C26    C     0.44830   0.37100   0.79254   0.01267  Uiso   1.00
C27    C     0.72960   0.86130   0.36160   0.01267  Uiso   1.00
C28    C     0.25120   0.64520   0.12380   0.01267  Uiso   1.00
C29    C     0.91490   0.86024   0.70498   0.01267  Uiso   1.00
C30    C     0.59600   0.76348   0.08762   0.01267  Uiso   1.00
C31    C     0.90400   0.23652   0.08762   0.01267  Uiso   1.00
C32    C     0.59160   0.56640   0.27833   0.01267  Uiso   1.00
C33    C     0.86440   0.29520   0.15177   0.01267  Uiso   1.00
C34    C     0.90840   0.43360   0.27833   0.01267  Uiso   1.00
C35    C     0.57140   0.38920   0.80090   0.01267  Uiso   1.00
C36    C     0.02950   0.25729   0.07930   0.01267  Uiso   1.00
C37    C     0.05170   0.62900   0.79254   0.01267  Uiso   1.00
C38    C     0.13560   0.70480   0.84823   0.01267  Uiso   1.00
C39    C     0.36030   0.91120   0.22340   0.01267  Uiso   1.00
C40    C     0.98070   0.23880   0.42180   0.01267  Uiso   1.00
C41    C     0.63970   0.08880   0.77660   0.01267  Uiso   1.00
C42    C     0.47050   0.74271   0.07930   0.01267  Uiso   1.00
C43    C     0.51930   0.76120   0.42180   0.01267  Uiso   1.00
C44    C     0.40400   0.23652   0.91238   0.01267  Uiso   1.00
C45    C     0.31170   0.65103   0.48390   0.01267  Uiso   1.00
C46    C     0.01930   0.76120   0.57820   0.01267  Uiso   1.00
C47    C     0.88550   0.66620   0.86670   0.01267  Uiso   1.00
C48    C     0.40500   0.16370   0.63920   0.01267  Uiso   1.00
C49    C     0.54080   0.88410   0.29650   0.01267  Uiso   1.00
C50    C     0.09500   0.83630   0.63920   0.01267  Uiso   1.00
C51    C     0.41490   0.86024   0.29502   0.01267  Uiso   1.00
C52    C     0.42860   0.61080   0.19910   0.01267  Uiso   1.00
C53    C     0.07140   0.38920   0.19910   0.01267  Uiso   1.00
C54    C     0.74880   0.35480   0.87620   0.01267  Uiso   1.00
C55    C     0.31380   0.15094   0.96977   0.01267  Uiso   1.00
C56    C     0.97050   0.74271   0.92070   0.01267  Uiso   1.00
C57    C     0.39310   0.73539   0.42105   0.01267  Uiso   1.00
C58    C     0.55170   0.62900   0.20746   0.01267  Uiso   1.00
C59    C     0.24880   0.35480   0.12380   0.01267  Uiso   1.00
C60    C     0.22960   0.86130   0.63840   0.01267  Uiso   1.00
C61    C     0.18620   0.84906   0.96977   0.01267  Uiso   1.00
C62    C     0.34140   0.78650   0.35770   0.01267  Uiso   1.00
C63    C     0.27040   0.13870   0.63840   0.01267  Uiso   1.00
C64    C     0.40840   0.43360   0.72167   0.01267  Uiso   1.00
C65    C     0.13970   0.08880   0.22340   0.01267  Uiso   1.00
C66    C     0.52950   0.25729   0.92070   0.01267  Uiso   1.00
C67    C     0.77040   0.13870   0.36160   0.01267  Uiso   1.00
C68    C     0.75120   0.64520   0.87620   0.01267  Uiso   1.00
C69    C     0.48070   0.23880   0.57820   0.01267  Uiso   1.00
C70    C     0.60690   0.26461   0.57895   0.01267  Uiso   1.00
C71    C     0.45920   0.11590   0.70350   0.01267  Uiso   1.00
C72    C     0.38550   0.66620   0.13330   0.01267  Uiso   1.00
O1     O     0.29895   0.36927   0.48516   0.01267  Uiso   1.00
O2     O     0.70390   0.13311   0.03736   0.01267  Uiso   1.00
O3     O     0.13337   0.39581   0.53596   0.01267  Uiso   1.00
O4     O     0.13802   0.89729   0.02544   0.01267  Uiso   1.00
O5     O     0.01480   0.49614   0.67510   0.01267  Uiso   1.00
O6     O     0.20105   0.63073   0.48516   0.01267  Uiso   1.00
O7     O     0.79423   0.41248   0.28588   0.01267  Uiso   1.00
O8     O     0.70577   0.58752   0.28588   0.01267  Uiso   1.00
O9     O     0.36198   0.10271   0.02544   0.01267  Uiso   1.00
O10    O     0.20390   0.13311   0.96264   0.01267  Uiso   1.00
O11    O     0.07330   0.02295   0.16666   0.01267  Uiso   1.00
O12    O     0.75430   0.11292   0.77803   0.01267  Uiso   1.00
O13    O     0.86663   0.60419   0.46404   0.01267  Uiso   1.00
O14    O     0.63337   0.39581   0.46404   0.01267  Uiso   1.00
O15    O     0.24570   0.88708   0.22197   0.01267  Uiso   1.00
O16    O     0.42670   0.97705   0.16666   0.01267  Uiso   1.00
O17    O     0.86198   0.10271   0.97456   0.01267  Uiso   1.00
O18    O     0.36663   0.60419   0.53596   0.01267  Uiso   1.00
O19    O     0.29610   0.86689   0.96264   0.01267  Uiso   1.00
O20    O     0.79895   0.36927   0.51484   0.01267  Uiso   1.00
O21    O     0.92670   0.97705   0.83334   0.01267  Uiso   1.00
O22    O     0.70105   0.63073   0.51484   0.01267  Uiso   1.00
O23    O     0.57330   0.02295   0.83334   0.01267  Uiso   1.00
O24    O     0.20577   0.58752   0.71412   0.01267  Uiso   1.00
O25    O     0.25430   0.11292   0.22197   0.01267  Uiso   1.00
O26    O     0.98520   0.50386   0.32490   0.01267  Uiso   1.00
O27    O     0.51480   0.49614   0.32490   0.01267  Uiso   1.00
O28    O     0.74570   0.88708   0.77803   0.01267  Uiso   1.00
O29    O     0.48520   0.50386   0.67510   0.01267  Uiso   1.00
O30    O     0.29423   0.41248   0.71412   0.01267  Uiso   1.00
O31    O     0.79610   0.86689   0.03736   0.01267  Uiso   1.00
O32    O     0.63802   0.89729   0.97456   0.01267  Uiso   1.00
H49    H     0.49300   0.76900   0.74790   0.01267  Uiso   1.00
H50    H     0.39570   0.75730   0.68020   0.01267  Uiso   1.00
H51    H     0.48920   0.85140   0.73450   0.01267  Uiso   1.00
H52    H     0.50500   0.63660   0.86190   0.01267  Uiso   1.00
H53    H     0.38440   0.64470   0.82180   0.01267  Uiso   1.00
H54    H     0.52440   0.81600   0.63580   0.01267  Uiso   1.00
H55    H     0.58790   0.70510   0.72290   0.01267  Uiso   1.00
H56    H     0.47820   0.73860   0.87630   0.01267  Uiso   1.00
C73    C     0.48020   0.79290   0.69440   0.01267  Uiso   1.00
C74    C     0.46930   0.68210   0.83350   0.01267  Uiso   1.00
N1     N     0.52900   0.72130   0.74500   0.01267  Uiso   1.00
H57    H     0.08790   0.70510   0.27710   0.01267  Uiso   1.00
H58    H     0.00500   0.63660   0.13810   0.01267  Uiso   1.00
H59    H     0.97820   0.73860   0.12370   0.01267  Uiso   1.00
H60    H     0.89570   0.75730   0.31980   0.01267  Uiso   1.00
H61    H     0.02440   0.81600   0.36420   0.01267  Uiso   1.00
H62    H     0.99300   0.76900   0.25210   0.01267  Uiso   1.00
H63    H     0.98920   0.85140   0.26550   0.01267  Uiso   1.00
H64    H     0.88440   0.64470   0.17820   0.01267  Uiso   1.00
C75    C     0.96930   0.68210   0.16650   0.01267  Uiso   1.00
C76    C     0.98020   0.79290   0.30560   0.01267  Uiso   1.00
N2     N     0.02900   0.72130   0.25500   0.01267  Uiso   1.00
H65    H     0.10430   0.24270   0.68020   0.01267  Uiso   1.00
H66    H     0.97560   0.18400   0.63580   0.01267  Uiso   1.00
H67    H     0.02180   0.26140   0.87630   0.01267  Uiso   1.00
H68    H     0.91210   0.29490   0.72290   0.01267  Uiso   1.00
H69    H     0.11560   0.35530   0.82180   0.01267  Uiso   1.00
H70    H     0.01080   0.14860   0.73450   0.01267  Uiso   1.00
H71    H     0.99500   0.36340   0.86190   0.01267  Uiso   1.00
H72    H     0.00700   0.23100   0.74790   0.01267  Uiso   1.00
C77    C     0.03070   0.31790   0.83350   0.01267  Uiso   1.00
C78    C     0.01980   0.20710   0.69440   0.01267  Uiso   1.00
N3     N     0.97100   0.27870   0.74500   0.01267  Uiso   1.00
H73    H     0.49500   0.36340   0.13810   0.01267  Uiso   1.00
H74    H     0.47560   0.18400   0.36420   0.01267  Uiso   1.00
H75    H     0.50700   0.23100   0.25210   0.01267  Uiso   1.00
H76    H     0.61560   0.35530   0.17820   0.01267  Uiso   1.00
H77    H     0.51080   0.14860   0.26550   0.01267  Uiso   1.00
H78    H     0.60430   0.24270   0.31980   0.01267  Uiso   1.00
H79    H     0.41210   0.29490   0.27710   0.01267  Uiso   1.00
H80    H     0.52180   0.26140   0.12370   0.01267  Uiso   1.00
C79    C     0.53070   0.31790   0.16650   0.01267  Uiso   1.00
C80    C     0.51980   0.20710   0.30560   0.01267  Uiso   1.00
N4     N     0.47100   0.27870   0.25500   0.01267  Uiso   1.00
