data_GUXQAS_clean
_audit_creation_date              2014-07-02
_audit_creation_method            'Materials Studio'
_symmetry_space_group_name_H-M    'P1'
_symmetry_Int_Tables_number       1
_symmetry_cell_setting            triclinic
loop_
_symmetry_equiv_pos_as_xyz
  x,y,z
_cell_length_a                    8.6670
_cell_length_b                    21.7093
_cell_length_c                    21.7093
_cell_angle_alpha                 87.7164
_cell_angle_beta                  78.4855
_cell_angle_gamma                 78.4854
loop_
_atom_site_label
_atom_site_type_symbol
_atom_site_fract_x
_atom_site_fract_y
_atom_site_fract_z
_atom_site_U_iso_or_equiv
_atom_site_adp_type
_atom_site_occupancy
Cu1    Cu    0.16902   0.86871   0.66150   0.01267  Uiso   1.00
Cu2    Cu    0.19922   0.63129   0.83850   0.01267  Uiso   1.00
Cu3    Cu    0.83051   0.33850   0.36872   0.01267  Uiso   1.00
Cu4    Cu    0.03773   0.16150   0.13128   0.01267  Uiso   1.00
Cu5    Cu    0.83098   0.13129   0.33850   0.01267  Uiso   1.00
Cu6    Cu    0.80078   0.36871   0.16150   0.01267  Uiso   1.00
Cu7    Cu    0.16949   0.66150   0.63128   0.01267  Uiso   1.00
Cu8    Cu    0.96227   0.83850   0.86872   0.01267  Uiso   1.00
H1     H     0.34350   0.01360   0.41140   0.01267  Uiso   1.00
H2     H     0.34090   0.76160   0.55480   0.01267  Uiso   1.00
H3     H     0.43070   0.92880   0.54240   0.01267  Uiso   1.00
H4     H     0.64560   0.90610   0.42630   0.01267  Uiso   1.00
H5     H     0.61190   0.85050   0.39030   0.01267  Uiso   1.00
H6     H     0.42390   0.97370   0.30510   0.01267  Uiso   1.00
H7     H     0.54150   0.90810   0.29870   0.01267  Uiso   1.00
H8     H     0.54990   0.06990   0.32230   0.01267  Uiso   1.00
H9     H     0.98020   0.97960   0.32740   0.01267  Uiso   1.00
H10    H     0.15600   0.78660   0.34320   0.01267  Uiso   1.00
H11    H     0.92880   0.90740   0.48200   0.01267  Uiso   1.00
H12    H     0.14560   0.95760   0.46440   0.01267  Uiso   1.00
H13    H     0.74150   0.81120   0.67980   0.01267  Uiso   1.00
H14    H     0.82420   0.83640   0.72880   0.01267  Uiso   1.00
H15    H     0.26850   0.48640   0.08860   0.01267  Uiso   1.00
H16    H     0.15730   0.73840   0.94520   0.01267  Uiso   1.00
H17    H     0.40190   0.57120   0.95760   0.01267  Uiso   1.00
H18    H     0.47800   0.59390   0.07370   0.01267  Uiso   1.00
H19    H     0.35270   0.64950   0.10970   0.01267  Uiso   1.00
H20    H     0.20270   0.52630   0.19490   0.01267  Uiso   1.00
H21    H     0.24830   0.59190   0.20130   0.01267  Uiso   1.00
H22    H     0.44210   0.43010   0.17770   0.01267  Uiso   1.00
H23    H     0.78720   0.52040   0.17260   0.01267  Uiso   1.00
H24    H     0.78580   0.71340   0.15680   0.01267  Uiso   1.00
H25    H     0.81820   0.59260   0.01800   0.01267  Uiso   1.00
H26    H     0.06760   0.54240   0.03560   0.01267  Uiso   1.00
H27    H     0.73250   0.68880   0.82020   0.01267  Uiso   1.00
H28    H     0.88940   0.66360   0.77120   0.01267  Uiso   1.00
H29    H     0.75490   0.58860   0.51360   0.01267  Uiso   1.00
H30    H     0.89570   0.44520   0.26160   0.01267  Uiso   1.00
H31    H     0.97310   0.45760   0.42880   0.01267  Uiso   1.00
H32    H     0.07190   0.57370   0.40610   0.01267  Uiso   1.00
H33    H     0.00220   0.60970   0.35050   0.01267  Uiso   1.00
H34    H     0.72900   0.69490   0.47370   0.01267  Uiso   1.00
H35    H     0.84020   0.70130   0.40810   0.01267  Uiso   1.00
H36    H     0.87220   0.67770   0.56990   0.01267  Uiso   1.00
H37    H     0.30760   0.67260   0.47960   0.01267  Uiso   1.00
H38    H     0.49920   0.65680   0.28660   0.01267  Uiso   1.00
H39    H     0.41080   0.51800   0.40740   0.01267  Uiso   1.00
H40    H     0.61000   0.53560   0.45760   0.01267  Uiso   1.00
H41    H     0.42130   0.32020   0.31120   0.01267  Uiso   1.00
H42    H     0.55300   0.27120   0.33640   0.01267  Uiso   1.00
H43    H     0.35710   0.91140   0.98640   0.01267  Uiso   1.00
H44    H     0.10250   0.05480   0.23840   0.01267  Uiso   1.00
H45    H     0.35950   0.04240   0.07120   0.01267  Uiso   1.00
H46    H     0.55170   0.92630   0.09390   0.01267  Uiso   1.00
H47    H     0.46240   0.89030   0.14950   0.01267  Uiso   1.00
H48    H     0.39760   0.80510   0.02630   0.01267  Uiso   1.00
H49    H     0.44960   0.79870   0.09190   0.01267  Uiso   1.00
H50    H     0.61980   0.82230   0.93010   0.01267  Uiso   1.00
H51    H     0.95980   0.82740   0.02040   0.01267  Uiso   1.00
H52    H     0.94260   0.84320   0.21340   0.01267  Uiso   1.00
H53    H     0.83620   0.98200   0.09260   0.01267  Uiso   1.00
H54    H     0.10320   0.96440   0.04240   0.01267  Uiso   1.00
H55    H     0.55270   0.17980   0.18880   0.01267  Uiso   1.00
H56    H     0.66060   0.22880   0.16360   0.01267  Uiso   1.00
H57    H     0.65650   0.98640   0.58860   0.01267  Uiso   1.00
H58    H     0.65910   0.23840   0.44520   0.01267  Uiso   1.00
H59    H     0.56930   0.07120   0.45760   0.01267  Uiso   1.00
H60    H     0.35440   0.09390   0.57370   0.01267  Uiso   1.00
H61    H     0.38810   0.14950   0.60970   0.01267  Uiso   1.00
H62    H     0.57610   0.02630   0.69490   0.01267  Uiso   1.00
H63    H     0.45850   0.09190   0.70130   0.01267  Uiso   1.00
H64    H     0.45010   0.93010   0.67770   0.01267  Uiso   1.00
H65    H     0.01980   0.02040   0.67260   0.01267  Uiso   1.00
H66    H     0.84400   0.21340   0.65680   0.01267  Uiso   1.00
H67    H     0.07120   0.09260   0.51800   0.01267  Uiso   1.00
H68    H     0.85440   0.04240   0.53560   0.01267  Uiso   1.00
H69    H     0.25850   0.18880   0.32020   0.01267  Uiso   1.00
H70    H     0.17580   0.16360   0.27120   0.01267  Uiso   1.00
H71    H     0.73150   0.51360   0.91140   0.01267  Uiso   1.00
H72    H     0.84270   0.26160   0.05480   0.01267  Uiso   1.00
H73    H     0.59810   0.42880   0.04240   0.01267  Uiso   1.00
H74    H     0.52200   0.40610   0.92630   0.01267  Uiso   1.00
H75    H     0.64730   0.35050   0.89030   0.01267  Uiso   1.00
H76    H     0.79730   0.47370   0.80510   0.01267  Uiso   1.00
H77    H     0.75170   0.40810   0.79870   0.01267  Uiso   1.00
H78    H     0.55790   0.56990   0.82230   0.01267  Uiso   1.00
H79    H     0.21280   0.47960   0.82740   0.01267  Uiso   1.00
H80    H     0.21420   0.28660   0.84320   0.01267  Uiso   1.00
H81    H     0.18180   0.40740   0.98200   0.01267  Uiso   1.00
H82    H     0.93240   0.45760   0.96440   0.01267  Uiso   1.00
H83    H     0.26750   0.31120   0.17980   0.01267  Uiso   1.00
H84    H     0.11060   0.33640   0.22880   0.01267  Uiso   1.00
H85    H     0.24510   0.41140   0.48640   0.01267  Uiso   1.00
H86    H     0.10430   0.55480   0.73840   0.01267  Uiso   1.00
H87    H     0.02690   0.54240   0.57120   0.01267  Uiso   1.00
H88    H     0.92810   0.42630   0.59390   0.01267  Uiso   1.00
H89    H     0.99780   0.39030   0.64950   0.01267  Uiso   1.00
H90    H     0.27100   0.30510   0.52630   0.01267  Uiso   1.00
H91    H     0.15980   0.29870   0.59190   0.01267  Uiso   1.00
H92    H     0.12780   0.32230   0.43010   0.01267  Uiso   1.00
H93    H     0.69240   0.32740   0.52040   0.01267  Uiso   1.00
H94    H     0.50080   0.34320   0.71340   0.01267  Uiso   1.00
H95    H     0.58920   0.48200   0.59260   0.01267  Uiso   1.00
H96    H     0.39000   0.46440   0.54240   0.01267  Uiso   1.00
H97    H     0.57870   0.67980   0.68880   0.01267  Uiso   1.00
H98    H     0.44700   0.72880   0.66360   0.01267  Uiso   1.00
H99    H     0.64290   0.08860   0.01360   0.01267  Uiso   1.00
H100   H     0.89750   0.94520   0.76160   0.01267  Uiso   1.00
H101   H     0.64050   0.95760   0.92880   0.01267  Uiso   1.00
H102   H     0.44830   0.07370   0.90610   0.01267  Uiso   1.00
H103   H     0.53760   0.10970   0.85050   0.01267  Uiso   1.00
H104   H     0.60240   0.19490   0.97370   0.01267  Uiso   1.00
H105   H     0.55040   0.20130   0.90810   0.01267  Uiso   1.00
H106   H     0.38020   0.17770   0.06990   0.01267  Uiso   1.00
H107   H     0.04020   0.17260   0.97960   0.01267  Uiso   1.00
H108   H     0.05740   0.15680   0.78660   0.01267  Uiso   1.00
H109   H     0.16380   0.01800   0.90740   0.01267  Uiso   1.00
H110   H     0.89680   0.03560   0.95760   0.01267  Uiso   1.00
H111   H     0.44730   0.82020   0.81120   0.01267  Uiso   1.00
H112   H     0.33940   0.77120   0.83640   0.01267  Uiso   1.00
C1     C     0.37870   0.79731   0.53869   0.01267  Uiso   1.00
C2     C     0.42553   0.88780   0.53334   0.01267  Uiso   1.00
C3     C     0.56237   0.88452   0.41974   0.01267  Uiso   1.00
C4     C     0.43551   0.93061   0.39177   0.01267  Uiso   1.00
C5     C     0.50642   0.94648   0.32328   0.01267  Uiso   1.00
C6     C     0.63937   0.03818   0.32288   0.01267  Uiso   1.00
C7     C     0.87176   0.98805   0.32543   0.01267  Uiso   1.00
C8     C     0.28654   0.90190   0.39522   0.01267  Uiso   1.00
C9     C     0.28335   0.85138   0.36112   0.01267  Uiso   1.00
C10    C     0.15445   0.82063   0.36807   0.01267  Uiso   1.00
C11    C     0.02660   0.84362   0.41358   0.01267  Uiso   1.00
C12    C     0.01844   0.89348   0.45084   0.01267  Uiso   1.00
C13    C     0.14946   0.92259   0.44029   0.01267  Uiso   1.00
C14    C     0.84161   0.88691   0.64687   0.01267  Uiso   1.00
C15    C     0.83621   0.82655   0.68463   0.01267  Uiso   1.00
C16    C     0.98027   0.77445   0.66701   0.01267  Uiso   1.00
C17    C     0.21470   0.70269   0.96131   0.01267  Uiso   1.00
C18    C     0.34667   0.61220   0.96666   0.01267  Uiso   1.00
C19    C     0.36663   0.61548   0.08026   0.01267  Uiso   1.00
C20    C     0.25789   0.56939   0.10823   0.01267  Uiso   1.00
C21    C     0.27618   0.55352   0.17672   0.01267  Uiso   1.00
C22    C     0.50043   0.46182   0.17712   0.01267  Uiso   1.00
C23    C     0.68524   0.51195   0.17457   0.01267  Uiso   1.00
C24    C     0.08366   0.59810   0.10478   0.01267  Uiso   1.00
C25    C     0.99585   0.64862   0.13888   0.01267  Uiso   1.00
C26    C     0.84315   0.67937   0.13193   0.01267  Uiso   1.00
C27    C     0.78380   0.65638   0.08642   0.01267  Uiso   1.00
C28    C     0.86276   0.60652   0.04916   0.01267  Uiso   1.00
C29    C     0.01234   0.57741   0.05971   0.01267  Uiso   1.00
C30    C     0.87539   0.61309   0.85313   0.01267  Uiso   1.00
C31    C     0.84739   0.67345   0.81537   0.01267  Uiso   1.00
C32    C     0.92173   0.72555   0.83299   0.01267  Uiso   1.00
C33    C     0.91739   0.46131   0.29731   0.01267  Uiso   1.00
C34    C     0.95887   0.46666   0.38780   0.01267  Uiso   1.00
C35    C     0.98211   0.58026   0.38452   0.01267  Uiso   1.00
C36    C     0.82728   0.60823   0.43061   0.01267  Uiso   1.00
C37    C     0.82970   0.67672   0.44648   0.01267  Uiso   1.00
C38    C     0.96225   0.67712   0.53818   0.01267  Uiso   1.00
C39    C     0.19719   0.67457   0.48805   0.01267  Uiso   1.00
C40    C     0.68176   0.60478   0.40190   0.01267  Uiso   1.00
C41    C     0.64447   0.63888   0.35138   0.01267  Uiso   1.00
C42    C     0.52252   0.63193   0.32063   0.01267  Uiso   1.00
C43    C     0.44018   0.58642   0.34362   0.01267  Uiso   1.00
C44    C     0.46928   0.54916   0.39348   0.01267  Uiso   1.00
C45    C     0.58975   0.55971   0.42259   0.01267  Uiso   1.00
C46    C     0.48848   0.35313   0.38691   0.01267  Uiso   1.00
C47    C     0.52084   0.31537   0.32655   0.01267  Uiso   1.00
C48    C     0.64728   0.33299   0.27445   0.01267  Uiso   1.00
C49    C     0.17601   0.03869   0.20269   0.01267  Uiso   1.00
C50    C     0.31333   0.03334   0.11220   0.01267  Uiso   1.00
C51    C     0.44689   0.91974   0.11548   0.01267  Uiso   1.00
C52    C     0.36612   0.89177   0.06939   0.01267  Uiso   1.00
C53    C     0.45290   0.82328   0.05352   0.01267  Uiso   1.00
C54    C     0.67755   0.82288   0.96182   0.01267  Uiso   1.00
C55    C     0.85981   0.82543   0.01195   0.01267  Uiso   1.00
C56    C     0.18844   0.89522   0.09810   0.01267  Uiso   1.00
C57    C     0.13473   0.86112   0.14862   0.01267  Uiso   1.00
C58    C     0.97508   0.86807   0.17937   0.01267  Uiso   1.00
C59    C     0.87022   0.91358   0.15638   0.01267  Uiso   1.00
C60    C     0.91192   0.95084   0.10652   0.01267  Uiso   1.00
C61    C     0.07205   0.94029   0.07741   0.01267  Uiso   1.00
C62    C     0.72852   0.14687   0.11309   0.01267  Uiso   1.00
C63    C     0.66276   0.18463   0.17345   0.01267  Uiso   1.00
C64    C     0.75472   0.16701   0.22555   0.01267  Uiso   1.00
C65    C     0.62130   0.20269   0.46131   0.01267  Uiso   1.00
C66    C     0.57447   0.11220   0.46666   0.01267  Uiso   1.00
C67    C     0.43763   0.11548   0.58026   0.01267  Uiso   1.00
C68    C     0.56449   0.06939   0.60823   0.01267  Uiso   1.00
C69    C     0.49358   0.05352   0.67672   0.01267  Uiso   1.00
C70    C     0.36063   0.96182   0.67712   0.01267  Uiso   1.00
C71    C     0.12824   0.01195   0.67457   0.01267  Uiso   1.00
C72    C     0.71346   0.09810   0.60478   0.01267  Uiso   1.00
C73    C     0.71665   0.14862   0.63888   0.01267  Uiso   1.00
C74    C     0.84555   0.17937   0.63193   0.01267  Uiso   1.00
C75    C     0.97340   0.15638   0.58642   0.01267  Uiso   1.00
C76    C     0.98156   0.10652   0.54916   0.01267  Uiso   1.00
C77    C     0.85054   0.07741   0.55971   0.01267  Uiso   1.00
C78    C     0.15839   0.11309   0.35313   0.01267  Uiso   1.00
C79    C     0.16379   0.17345   0.31537   0.01267  Uiso   1.00
C80    C     0.01973   0.22555   0.33299   0.01267  Uiso   1.00
C81    C     0.78530   0.29731   0.03869   0.01267  Uiso   1.00
C82    C     0.65333   0.38780   0.03334   0.01267  Uiso   1.00
C83    C     0.63337   0.38452   0.91974   0.01267  Uiso   1.00
C84    C     0.74211   0.43061   0.89177   0.01267  Uiso   1.00
C85    C     0.72382   0.44648   0.82328   0.01267  Uiso   1.00
C86    C     0.49957   0.53818   0.82288   0.01267  Uiso   1.00
C87    C     0.31476   0.48805   0.82543   0.01267  Uiso   1.00
C88    C     0.91634   0.40190   0.89522   0.01267  Uiso   1.00
C89    C     0.00415   0.35138   0.86112   0.01267  Uiso   1.00
C90    C     0.15685   0.32063   0.86807   0.01267  Uiso   1.00
C91    C     0.21620   0.34362   0.91358   0.01267  Uiso   1.00
C92    C     0.13724   0.39348   0.95084   0.01267  Uiso   1.00
C93    C     0.98766   0.42259   0.94029   0.01267  Uiso   1.00
C94    C     0.12461   0.38691   0.14687   0.01267  Uiso   1.00
C95    C     0.15261   0.32655   0.18463   0.01267  Uiso   1.00
C96    C     0.07827   0.27445   0.16701   0.01267  Uiso   1.00
C97    C     0.08261   0.53869   0.70269   0.01267  Uiso   1.00
C98    C     0.04113   0.53334   0.61220   0.01267  Uiso   1.00
C99    C     0.01789   0.41974   0.61548   0.01267  Uiso   1.00
C100   C     0.17272   0.39177   0.56939   0.01267  Uiso   1.00
C101   C     0.17030   0.32328   0.55352   0.01267  Uiso   1.00
C102   C     0.03775   0.32288   0.46182   0.01267  Uiso   1.00
C103   C     0.80281   0.32543   0.51195   0.01267  Uiso   1.00
C104   C     0.31824   0.39522   0.59810   0.01267  Uiso   1.00
C105   C     0.35553   0.36112   0.64862   0.01267  Uiso   1.00
C106   C     0.47748   0.36807   0.67937   0.01267  Uiso   1.00
C107   C     0.55982   0.41358   0.65638   0.01267  Uiso   1.00
C108   C     0.53072   0.45084   0.60652   0.01267  Uiso   1.00
C109   C     0.41025   0.44029   0.57741   0.01267  Uiso   1.00
C110   C     0.51152   0.64687   0.61309   0.01267  Uiso   1.00
C111   C     0.47916   0.68463   0.67345   0.01267  Uiso   1.00
C112   C     0.35272   0.66701   0.72555   0.01267  Uiso   1.00
C113   C     0.82399   0.96131   0.79731   0.01267  Uiso   1.00
C114   C     0.68667   0.96666   0.88780   0.01267  Uiso   1.00
C115   C     0.55311   0.08026   0.88452   0.01267  Uiso   1.00
C116   C     0.63388   0.10823   0.93061   0.01267  Uiso   1.00
C117   C     0.54710   0.17672   0.94648   0.01267  Uiso   1.00
C118   C     0.32245   0.17712   0.03818   0.01267  Uiso   1.00
C119   C     0.14019   0.17457   0.98805   0.01267  Uiso   1.00
C120   C     0.81156   0.10478   0.90190   0.01267  Uiso   1.00
C121   C     0.86527   0.13888   0.85138   0.01267  Uiso   1.00
C122   C     0.02492   0.13193   0.82063   0.01267  Uiso   1.00
C123   C     0.12978   0.08642   0.84362   0.01267  Uiso   1.00
C124   C     0.08808   0.04916   0.89348   0.01267  Uiso   1.00
C125   C     0.92795   0.05971   0.92259   0.01267  Uiso   1.00
C126   C     0.27148   0.85313   0.88691   0.01267  Uiso   1.00
C127   C     0.33724   0.81537   0.82655   0.01267  Uiso   1.00
C128   C     0.24528   0.83299   0.77445   0.01267  Uiso   1.00
N1     N     0.35119   0.85034   0.57288   0.01267  Uiso   1.00
N2     N     0.46192   0.79931   0.48145   0.01267  Uiso   1.00
N3     N     0.49164   0.85883   0.47909   0.01267  Uiso   1.00
N4     N     0.64118   0.97752   0.32052   0.01267  Uiso   1.00
N5     N     0.79146   0.94395   0.32173   0.01267  Uiso   1.00
N6     N     0.78403   0.04733   0.32621   0.01267  Uiso   1.00
N7     N     0.27441   0.64966   0.92712   0.01267  Uiso   1.00
N8     N     0.24268   0.70069   0.01855   0.01267  Uiso   1.00
N9     N     0.32956   0.64117   0.02091   0.01267  Uiso   1.00
N10    N     0.43922   0.52248   0.17948   0.01267  Uiso   1.00
N11    N     0.55714   0.55605   0.17827   0.01267  Uiso   1.00
N12    N     0.65757   0.45267   0.17379   0.01267  Uiso   1.00
N13    N     0.92407   0.42712   0.35034   0.01267  Uiso   1.00
N14    N     0.94337   0.51855   0.29931   0.01267  Uiso   1.00
N15    N     0.97073   0.52091   0.35883   0.01267  Uiso   1.00
N16    N     0.96170   0.67948   0.47752   0.01267  Uiso   1.00
N17    N     0.11319   0.67827   0.44395   0.01267  Uiso   1.00
N18    N     0.11024   0.67379   0.54733   0.01267  Uiso   1.00
N19    N     0.20153   0.07288   0.14966   0.01267  Uiso   1.00
N20    N     0.26123   0.98145   0.20069   0.01267  Uiso   1.00
N21    N     0.35047   0.97909   0.14117   0.01267  Uiso   1.00
N22    N     0.61870   0.82052   0.02248   0.01267  Uiso   1.00
N23    N     0.73541   0.82173   0.05605   0.01267  Uiso   1.00
N24    N     0.83136   0.82621   0.95267   0.01267  Uiso   1.00
N25    N     0.64881   0.14966   0.42712   0.01267  Uiso   1.00
N26    N     0.53808   0.20069   0.51855   0.01267  Uiso   1.00
N27    N     0.50836   0.14117   0.52091   0.01267  Uiso   1.00
N28    N     0.35882   0.02248   0.67948   0.01267  Uiso   1.00
N29    N     0.20854   0.05605   0.67827   0.01267  Uiso   1.00
N30    N     0.21597   0.95267   0.67379   0.01267  Uiso   1.00
N31    N     0.72559   0.35034   0.07288   0.01267  Uiso   1.00
N32    N     0.75732   0.29931   0.98145   0.01267  Uiso   1.00
N33    N     0.67044   0.35883   0.97909   0.01267  Uiso   1.00
N34    N     0.56078   0.47752   0.82052   0.01267  Uiso   1.00
N35    N     0.44286   0.44395   0.82173   0.01267  Uiso   1.00
N36    N     0.34243   0.54733   0.82621   0.01267  Uiso   1.00
N37    N     0.07593   0.57288   0.64966   0.01267  Uiso   1.00
N38    N     0.05663   0.48145   0.70069   0.01267  Uiso   1.00
N39    N     0.02927   0.47909   0.64117   0.01267  Uiso   1.00
N40    N     0.03830   0.32052   0.52248   0.01267  Uiso   1.00
N41    N     0.88681   0.32173   0.55605   0.01267  Uiso   1.00
N42    N     0.88976   0.32621   0.45267   0.01267  Uiso   1.00
N43    N     0.79847   0.92712   0.85034   0.01267  Uiso   1.00
N44    N     0.73877   0.01855   0.79931   0.01267  Uiso   1.00
N45    N     0.64953   0.02091   0.85883   0.01267  Uiso   1.00
N46    N     0.38130   0.17948   0.97752   0.01267  Uiso   1.00
N47    N     0.26459   0.17827   0.94395   0.01267  Uiso   1.00
N48    N     0.16864   0.17379   0.04733   0.01267  Uiso   1.00
O1     O     0.96704   0.90975   0.63795   0.01267  Uiso   1.00
O2     O     0.71911   0.91169   0.62789   0.01267  Uiso   1.00
O3     O     0.95730   0.71938   0.66618   0.01267  Uiso   1.00
O4     O     0.11980   0.78639   0.65351   0.01267  Uiso   1.00
O5     O     0.39916   0.98467   0.42961   0.01267  Uiso   1.00
O6     O     0.01474   0.59025   0.86205   0.01267  Uiso   1.00
O7     O     0.75869   0.58831   0.87211   0.01267  Uiso   1.00
O8     O     0.84286   0.78062   0.83382   0.01267  Uiso   1.00
O9     O     0.05970   0.71361   0.84649   0.01267  Uiso   1.00
O10    O     0.31344   0.51533   0.07039   0.01267  Uiso   1.00
O11    O     0.60499   0.36205   0.40975   0.01267  Uiso   1.00
O12    O     0.34700   0.37211   0.41169   0.01267  Uiso   1.00
O13    O     0.62348   0.33382   0.21938   0.01267  Uiso   1.00
O14    O     0.77331   0.34649   0.28639   0.01267  Uiso   1.00
O15    O     0.82877   0.57039   0.48467   0.01267  Uiso   1.00
O16    O     0.87679   0.13795   0.09025   0.01267  Uiso   1.00
O17    O     0.63080   0.12789   0.08831   0.01267  Uiso   1.00
O18    O     0.67668   0.16618   0.28062   0.01267  Uiso   1.00
O19    O     0.90619   0.15351   0.21361   0.01267  Uiso   1.00
O20    O     0.38383   0.92961   0.01533   0.01267  Uiso   1.00
O21    O     0.03296   0.09025   0.36205   0.01267  Uiso   1.00
O22    O     0.28089   0.08831   0.37211   0.01267  Uiso   1.00
O23    O     0.04270   0.28062   0.33382   0.01267  Uiso   1.00
O24    O     0.88020   0.21361   0.34649   0.01267  Uiso   1.00
O25    O     0.60084   0.01533   0.57039   0.01267  Uiso   1.00
O26    O     0.98526   0.40975   0.13795   0.01267  Uiso   1.00
O27    O     0.24131   0.41169   0.12789   0.01267  Uiso   1.00
O28    O     0.15714   0.21938   0.16618   0.01267  Uiso   1.00
O29    O     0.94030   0.28639   0.15351   0.01267  Uiso   1.00
O30    O     0.68656   0.48467   0.92961   0.01267  Uiso   1.00
O31    O     0.39501   0.63795   0.59025   0.01267  Uiso   1.00
O32    O     0.65300   0.62789   0.58831   0.01267  Uiso   1.00
O33    O     0.37652   0.66618   0.78062   0.01267  Uiso   1.00
O34    O     0.22669   0.65351   0.71361   0.01267  Uiso   1.00
O35    O     0.17123   0.42961   0.51533   0.01267  Uiso   1.00
O36    O     0.12321   0.86205   0.90975   0.01267  Uiso   1.00
O37    O     0.36920   0.87211   0.91169   0.01267  Uiso   1.00
O38    O     0.32332   0.83382   0.71938   0.01267  Uiso   1.00
O39    O     0.09381   0.84649   0.78639   0.01267  Uiso   1.00
O40    O     0.61617   0.07039   0.98467   0.01267  Uiso   1.00
F1     F     0.41556   0.82613   0.31835   0.01267  Uiso   1.00
F2     F     0.90028   0.81352   0.42312   0.01267  Uiso   1.00
F3     F     0.06004   0.67387   0.18165   0.01267  Uiso   1.00
F4     F     0.63692   0.68648   0.07688   0.01267  Uiso   1.00
F5     F     0.73391   0.68165   0.32613   0.01267  Uiso   1.00
F6     F     0.32340   0.57688   0.31352   0.01267  Uiso   1.00
F7     F     0.24169   0.81835   0.17387   0.01267  Uiso   1.00
F8     F     0.71380   0.92312   0.18648   0.01267  Uiso   1.00
F9     F     0.58444   0.17387   0.68165   0.01267  Uiso   1.00
F10    F     0.09972   0.18648   0.57688   0.01267  Uiso   1.00
F11    F     0.93996   0.32613   0.81835   0.01267  Uiso   1.00
F12    F     0.36308   0.31352   0.92312   0.01267  Uiso   1.00
F13    F     0.26609   0.31835   0.67387   0.01267  Uiso   1.00
F14    F     0.67660   0.42312   0.68648   0.01267  Uiso   1.00
F15    F     0.75831   0.18165   0.82613   0.01267  Uiso   1.00
F16    F     0.28620   0.07688   0.81352   0.01267  Uiso   1.00
