data_NIBBOR_clean
_audit_creation_date              2014-07-02
_audit_creation_method            'Materials Studio'
_symmetry_space_group_name_H-M    'P1'
_symmetry_Int_Tables_number       1
_symmetry_cell_setting            triclinic
loop_
_symmetry_equiv_pos_as_xyz
  x,y,z
_cell_length_a                    14.3198
_cell_length_b                    14.3198
_cell_length_c                    14.3198
_cell_angle_alpha                 109.4210
_cell_angle_beta                  109.4210
_cell_angle_gamma                 109.4210
loop_
_atom_site_label
_atom_site_type_symbol
_atom_site_fract_x
_atom_site_fract_y
_atom_site_fract_z
_atom_site_U_iso_or_equiv
_atom_site_adp_type
_atom_site_occupancy
Ba1    Ba    0.99442   0.31118   0.65402   0.01267  Uiso   1.00
Ba2    Ba    0.65402   0.99442   0.31118   0.01267  Uiso   1.00
Ba3    Ba    0.31118   0.65402   0.99442   0.01267  Uiso   1.00
Ba4    Ba    0.00558   0.68882   0.34598   0.01267  Uiso   1.00
Ba5    Ba    0.34598   0.00558   0.68882   0.01267  Uiso   1.00
Ba6    Ba    0.68882   0.34598   0.00558   0.01267  Uiso   1.00
Cu1    Cu    0.17820   0.19220   0.60590   0.01267  Uiso   1.00
Cu2    Cu    0.60590   0.17820   0.19220   0.01267  Uiso   1.00
Cu3    Cu    0.19220   0.60590   0.17820   0.01267  Uiso   1.00
Cu4    Cu    0.82180   0.80780   0.39410   0.01267  Uiso   1.00
Cu5    Cu    0.39410   0.82180   0.80780   0.01267  Uiso   1.00
Cu6    Cu    0.80780   0.39410   0.82180   0.01267  Uiso   1.00
H1     H     0.90840   0.90290   0.16930   0.01267  Uiso   1.00
H2     H     0.83270   0.90260   0.22700   0.01267  Uiso   1.00
H3     H     0.86160   0.98820   0.18210   0.01267  Uiso   1.00
H4     H     0.15550   0.16820   0.38830   0.01267  Uiso   1.00
H5     H     0.10620   0.06560   0.26750   0.01267  Uiso   1.00
H6     H     0.05930   0.15100   0.28030   0.01267  Uiso   1.00
H7     H     0.55470   0.49230   0.95290   0.01267  Uiso   1.00
H8     H     0.60610   0.46350   0.87330   0.01267  Uiso   1.00
H9     H     0.56520   0.55330   0.88110   0.01267  Uiso   1.00
H10    H     0.34860   0.31360   0.60810   0.01267  Uiso   1.00
H11    H     0.43820   0.44360   0.66930   0.01267  Uiso   1.00
H12    H     0.47920   0.35380   0.66140   0.01267  Uiso   1.00
H13    H     0.16930   0.90840   0.90290   0.01267  Uiso   1.00
H14    H     0.22700   0.83270   0.90260   0.01267  Uiso   1.00
H15    H     0.18210   0.86160   0.98820   0.01267  Uiso   1.00
H16    H     0.38830   0.15550   0.16820   0.01267  Uiso   1.00
H17    H     0.26750   0.10620   0.06560   0.01267  Uiso   1.00
H18    H     0.28030   0.05930   0.15100   0.01267  Uiso   1.00
H19    H     0.95290   0.55470   0.49230   0.01267  Uiso   1.00
H20    H     0.87330   0.60610   0.46350   0.01267  Uiso   1.00
H21    H     0.88110   0.56520   0.55330   0.01267  Uiso   1.00
H22    H     0.60810   0.34860   0.31360   0.01267  Uiso   1.00
H23    H     0.66930   0.43820   0.44360   0.01267  Uiso   1.00
H24    H     0.66140   0.47920   0.35380   0.01267  Uiso   1.00
H25    H     0.90290   0.16930   0.90840   0.01267  Uiso   1.00
H26    H     0.90260   0.22700   0.83270   0.01267  Uiso   1.00
H27    H     0.98820   0.18210   0.86160   0.01267  Uiso   1.00
H28    H     0.16820   0.38830   0.15550   0.01267  Uiso   1.00
H29    H     0.06560   0.26750   0.10620   0.01267  Uiso   1.00
H30    H     0.15100   0.28030   0.05930   0.01267  Uiso   1.00
H31    H     0.49230   0.95290   0.55470   0.01267  Uiso   1.00
H32    H     0.46350   0.87330   0.60610   0.01267  Uiso   1.00
H33    H     0.55330   0.88110   0.56520   0.01267  Uiso   1.00
H34    H     0.31360   0.60810   0.34860   0.01267  Uiso   1.00
H35    H     0.44360   0.66930   0.43820   0.01267  Uiso   1.00
H36    H     0.35380   0.66140   0.47920   0.01267  Uiso   1.00
H37    H     0.09160   0.09710   0.83070   0.01267  Uiso   1.00
H38    H     0.16730   0.09740   0.77300   0.01267  Uiso   1.00
H39    H     0.13840   0.01180   0.81790   0.01267  Uiso   1.00
H40    H     0.84450   0.83180   0.61170   0.01267  Uiso   1.00
H41    H     0.89380   0.93440   0.73250   0.01267  Uiso   1.00
H42    H     0.94070   0.84900   0.71970   0.01267  Uiso   1.00
H43    H     0.44530   0.50770   0.04710   0.01267  Uiso   1.00
H44    H     0.39390   0.53650   0.12670   0.01267  Uiso   1.00
H45    H     0.43480   0.44670   0.11890   0.01267  Uiso   1.00
H46    H     0.65140   0.68640   0.39190   0.01267  Uiso   1.00
H47    H     0.56180   0.55640   0.33070   0.01267  Uiso   1.00
H48    H     0.52080   0.64620   0.33860   0.01267  Uiso   1.00
H49    H     0.83070   0.09160   0.09710   0.01267  Uiso   1.00
H50    H     0.77300   0.16730   0.09740   0.01267  Uiso   1.00
H51    H     0.81790   0.13840   0.01180   0.01267  Uiso   1.00
H52    H     0.61170   0.84450   0.83180   0.01267  Uiso   1.00
H53    H     0.73250   0.89380   0.93440   0.01267  Uiso   1.00
H54    H     0.71970   0.94070   0.84900   0.01267  Uiso   1.00
H55    H     0.04710   0.44530   0.50770   0.01267  Uiso   1.00
H56    H     0.12670   0.39390   0.53650   0.01267  Uiso   1.00
H57    H     0.11890   0.43480   0.44670   0.01267  Uiso   1.00
H58    H     0.39190   0.65140   0.68640   0.01267  Uiso   1.00
H59    H     0.33070   0.56180   0.55640   0.01267  Uiso   1.00
H60    H     0.33860   0.52080   0.64620   0.01267  Uiso   1.00
H61    H     0.09710   0.83070   0.09160   0.01267  Uiso   1.00
H62    H     0.09740   0.77300   0.16730   0.01267  Uiso   1.00
H63    H     0.01180   0.81790   0.13840   0.01267  Uiso   1.00
H64    H     0.83180   0.61170   0.84450   0.01267  Uiso   1.00
H65    H     0.93440   0.73250   0.89380   0.01267  Uiso   1.00
H66    H     0.84900   0.71970   0.94070   0.01267  Uiso   1.00
H67    H     0.50770   0.04710   0.44530   0.01267  Uiso   1.00
H68    H     0.53650   0.12670   0.39390   0.01267  Uiso   1.00
H69    H     0.44670   0.11890   0.43480   0.01267  Uiso   1.00
H70    H     0.68640   0.39190   0.65140   0.01267  Uiso   1.00
H71    H     0.55640   0.33070   0.56180   0.01267  Uiso   1.00
H72    H     0.64620   0.33860   0.52080   0.01267  Uiso   1.00
C1     C     0.99600   0.03690   0.33230   0.01267  Uiso   1.00
C2     C     0.97050   0.11430   0.41240   0.01267  Uiso   1.00
C3     C     0.89000   0.94970   0.21710   0.01267  Uiso   1.00
C4     C     0.08800   0.11260   0.31550   0.01267  Uiso   1.00
C5     C     0.33940   0.41730   0.79560   0.01267  Uiso   1.00
C6     C     0.43040   0.38770   0.78280   0.01267  Uiso   1.00
C7     C     0.55030   0.48320   0.88180   0.01267  Uiso   1.00
C8     C     0.42350   0.37330   0.67000   0.01267  Uiso   1.00
C9     C     0.04430   0.97710   0.39090   0.01267  Uiso   1.00
C10    C     0.40240   0.27450   0.78330   0.01267  Uiso   1.00
C11    C     0.33230   0.99600   0.03690   0.01267  Uiso   1.00
C12    C     0.41240   0.97050   0.11430   0.01267  Uiso   1.00
C13    C     0.21710   0.89000   0.94970   0.01267  Uiso   1.00
C14    C     0.31550   0.08800   0.11260   0.01267  Uiso   1.00
C15    C     0.79560   0.33940   0.41730   0.01267  Uiso   1.00
C16    C     0.78280   0.43040   0.38770   0.01267  Uiso   1.00
C17    C     0.88180   0.55030   0.48320   0.01267  Uiso   1.00
C18    C     0.67000   0.42350   0.37330   0.01267  Uiso   1.00
C19    C     0.39090   0.04430   0.97710   0.01267  Uiso   1.00
C20    C     0.78330   0.40240   0.27450   0.01267  Uiso   1.00
C21    C     0.03690   0.33230   0.99600   0.01267  Uiso   1.00
C22    C     0.11430   0.41240   0.97050   0.01267  Uiso   1.00
C23    C     0.94970   0.21710   0.89000   0.01267  Uiso   1.00
C24    C     0.11260   0.31550   0.08800   0.01267  Uiso   1.00
C25    C     0.41730   0.79560   0.33940   0.01267  Uiso   1.00
C26    C     0.38770   0.78280   0.43040   0.01267  Uiso   1.00
C27    C     0.48320   0.88180   0.55030   0.01267  Uiso   1.00
C28    C     0.37330   0.67000   0.42350   0.01267  Uiso   1.00
C29    C     0.97710   0.39090   0.04430   0.01267  Uiso   1.00
C30    C     0.27450   0.78330   0.40240   0.01267  Uiso   1.00
C31    C     0.00400   0.96310   0.66770   0.01267  Uiso   1.00
C32    C     0.02950   0.88570   0.58760   0.01267  Uiso   1.00
C33    C     0.11000   0.05030   0.78290   0.01267  Uiso   1.00
C34    C     0.91200   0.88740   0.68450   0.01267  Uiso   1.00
C35    C     0.66060   0.58270   0.20440   0.01267  Uiso   1.00
C36    C     0.56960   0.61230   0.21720   0.01267  Uiso   1.00
C37    C     0.44970   0.51680   0.11820   0.01267  Uiso   1.00
C38    C     0.57650   0.62670   0.33000   0.01267  Uiso   1.00
C39    C     0.95570   0.02290   0.60910   0.01267  Uiso   1.00
C40    C     0.59760   0.72550   0.21670   0.01267  Uiso   1.00
C41    C     0.66770   0.00400   0.96310   0.01267  Uiso   1.00
C42    C     0.58760   0.02950   0.88570   0.01267  Uiso   1.00
C43    C     0.78290   0.11000   0.05030   0.01267  Uiso   1.00
C44    C     0.68450   0.91200   0.88740   0.01267  Uiso   1.00
C45    C     0.20440   0.66060   0.58270   0.01267  Uiso   1.00
C46    C     0.21720   0.56960   0.61230   0.01267  Uiso   1.00
C47    C     0.11820   0.44970   0.51680   0.01267  Uiso   1.00
C48    C     0.33000   0.57650   0.62670   0.01267  Uiso   1.00
C49    C     0.60910   0.95570   0.02290   0.01267  Uiso   1.00
C50    C     0.21670   0.59760   0.72550   0.01267  Uiso   1.00
C51    C     0.96310   0.66770   0.00400   0.01267  Uiso   1.00
C52    C     0.88570   0.58760   0.02950   0.01267  Uiso   1.00
C53    C     0.05030   0.78290   0.11000   0.01267  Uiso   1.00
C54    C     0.88740   0.68450   0.91200   0.01267  Uiso   1.00
C55    C     0.58270   0.20440   0.66060   0.01267  Uiso   1.00
C56    C     0.61230   0.21720   0.56960   0.01267  Uiso   1.00
C57    C     0.51680   0.11820   0.44970   0.01267  Uiso   1.00
C58    C     0.62670   0.33000   0.57650   0.01267  Uiso   1.00
C59    C     0.02290   0.60910   0.95570   0.01267  Uiso   1.00
C60    C     0.72550   0.21670   0.59760   0.01267  Uiso   1.00
O1     O     0.05660   0.20300   0.50700   0.01267  Uiso   1.00
O2     O     0.23500   0.34920   0.71760   0.01267  Uiso   1.00
O3     O     0.87490   0.10550   0.37550   0.01267  Uiso   1.00
O4     O     0.36910   0.50260   0.88430   0.01267  Uiso   1.00
O5     O     0.12920   0.03960   0.49310   0.01267  Uiso   1.00
O6     O     0.30380   0.18690   0.70820   0.01267  Uiso   1.00
O7     O     0.99790   0.87220   0.33940   0.01267  Uiso   1.00
O8     O     0.47430   0.26910   0.85540   0.01267  Uiso   1.00
O9     O     0.50700   0.05660   0.20300   0.01267  Uiso   1.00
O10    O     0.71760   0.23500   0.34920   0.01267  Uiso   1.00
O11    O     0.37550   0.87490   0.10550   0.01267  Uiso   1.00
O12    O     0.88430   0.36910   0.50260   0.01267  Uiso   1.00
O13    O     0.49310   0.12920   0.03960   0.01267  Uiso   1.00
O14    O     0.70820   0.30380   0.18690   0.01267  Uiso   1.00
O15    O     0.33940   0.99790   0.87220   0.01267  Uiso   1.00
O16    O     0.85540   0.47430   0.26910   0.01267  Uiso   1.00
O17    O     0.20300   0.50700   0.05660   0.01267  Uiso   1.00
O18    O     0.34920   0.71760   0.23500   0.01267  Uiso   1.00
O19    O     0.10550   0.37550   0.87490   0.01267  Uiso   1.00
O20    O     0.50260   0.88430   0.36910   0.01267  Uiso   1.00
O21    O     0.03960   0.49310   0.12920   0.01267  Uiso   1.00
O22    O     0.18690   0.70820   0.30380   0.01267  Uiso   1.00
O23    O     0.87220   0.33940   0.99790   0.01267  Uiso   1.00
O24    O     0.26910   0.85540   0.47430   0.01267  Uiso   1.00
O25    O     0.94340   0.79700   0.49300   0.01267  Uiso   1.00
O26    O     0.76500   0.65080   0.28240   0.01267  Uiso   1.00
O27    O     0.12510   0.89450   0.62450   0.01267  Uiso   1.00
O28    O     0.63090   0.49740   0.11570   0.01267  Uiso   1.00
O29    O     0.87080   0.96040   0.50690   0.01267  Uiso   1.00
O30    O     0.69620   0.81310   0.29180   0.01267  Uiso   1.00
O31    O     0.00210   0.12780   0.66060   0.01267  Uiso   1.00
O32    O     0.52570   0.73090   0.14460   0.01267  Uiso   1.00
O33    O     0.49300   0.94340   0.79700   0.01267  Uiso   1.00
O34    O     0.28240   0.76500   0.65080   0.01267  Uiso   1.00
O35    O     0.62450   0.12510   0.89450   0.01267  Uiso   1.00
O36    O     0.11570   0.63090   0.49740   0.01267  Uiso   1.00
O37    O     0.50690   0.87080   0.96040   0.01267  Uiso   1.00
O38    O     0.29180   0.69620   0.81310   0.01267  Uiso   1.00
O39    O     0.66060   0.00210   0.12780   0.01267  Uiso   1.00
O40    O     0.14460   0.52570   0.73090   0.01267  Uiso   1.00
O41    O     0.79700   0.49300   0.94340   0.01267  Uiso   1.00
O42    O     0.65080   0.28240   0.76500   0.01267  Uiso   1.00
O43    O     0.89450   0.62450   0.12510   0.01267  Uiso   1.00
O44    O     0.49740   0.11570   0.63090   0.01267  Uiso   1.00
O45    O     0.96040   0.50690   0.87080   0.01267  Uiso   1.00
O46    O     0.81310   0.29180   0.69620   0.01267  Uiso   1.00
O47    O     0.12780   0.66060   0.00210   0.01267  Uiso   1.00
O48    O     0.73090   0.14460   0.52570   0.01267  Uiso   1.00
