data_IMIDZB06_clean
_audit_creation_date              2014-07-02
_audit_creation_method            'Materials Studio'
_symmetry_space_group_name_H-M    'P1'
_symmetry_Int_Tables_number       1
_symmetry_cell_setting            triclinic
loop_
_symmetry_equiv_pos_as_xyz
  x,y,z
_cell_length_a                    12.4020
_cell_length_b                    17.4368
_cell_length_c                    17.4368
_cell_angle_alpha                 82.7344
_cell_angle_beta                  69.1682
_cell_angle_gamma                 69.1682
loop_
_atom_site_label
_atom_site_type_symbol
_atom_site_fract_x
_atom_site_fract_y
_atom_site_fract_z
_atom_site_U_iso_or_equiv
_atom_site_adp_type
_atom_site_occupancy
Zn1    Zn    0.40250   0.95260   0.24520   0.01267  Uiso   1.00
Zn2    Zn    0.10060   0.75870   0.45390   0.01267  Uiso   1.00
Zn3    Zn    0.60030   0.04740   0.75480   0.01267  Uiso   1.00
Zn4    Zn    0.31320   0.24130   0.54610   0.01267  Uiso   1.00
Zn5    Zn    0.89770   0.25480   0.45260   0.01267  Uiso   1.00
Zn6    Zn    0.80450   0.04610   0.25870   0.01267  Uiso   1.00
Zn7    Zn    0.60510   0.74520   0.54740   0.01267  Uiso   1.00
Zn8    Zn    0.10930   0.95390   0.74130   0.01267  Uiso   1.00
Zn9    Zn    0.10030   0.75480   0.04740   0.01267  Uiso   1.00
Zn10   Zn    0.81320   0.54610   0.24130   0.01267  Uiso   1.00
Zn11   Zn    0.90250   0.24520   0.95260   0.01267  Uiso   1.00
Zn12   Zn    0.60060   0.45390   0.75870   0.01267  Uiso   1.00
Zn13   Zn    0.10510   0.54740   0.74520   0.01267  Uiso   1.00
Zn14   Zn    0.60930   0.74130   0.95390   0.01267  Uiso   1.00
Zn15   Zn    0.39770   0.45260   0.25480   0.01267  Uiso   1.00
Zn16   Zn    0.30450   0.25870   0.04610   0.01267  Uiso   1.00
H1     H     0.44720   0.87740   0.07960   0.01267  Uiso   1.00
H2     H     0.65820   0.79750   0.21230   0.01267  Uiso   1.00
H3     H     0.75450   0.71840   0.08720   0.01267  Uiso   1.00
H4     H     0.44130   0.09570   0.13650   0.01267  Uiso   1.00
H5     H     0.14030   0.04500   0.22160   0.01267  Uiso   1.00
H6     H     0.09970   0.17550   0.15270   0.01267  Uiso   1.00
H7     H     0.66800   0.93600   0.22640   0.01267  Uiso   1.00
H8     H     0.37310   0.07150   0.38610   0.01267  Uiso   1.00
H9     H     0.54420   0.10370   0.39130   0.01267  Uiso   1.00
H10    H     0.32210   0.80220   0.32860   0.01267  Uiso   1.00
H11    H     0.13770   0.03090   0.38390   0.01267  Uiso   1.00
H12    H     0.01570   0.94910   0.46770   0.01267  Uiso   1.00
H13    H     0.40420   0.12260   0.92040   0.01267  Uiso   1.00
H14    H     0.66800   0.20250   0.78770   0.01267  Uiso   1.00
H15    H     0.56010   0.28160   0.91280   0.01267  Uiso   1.00
H16    H     0.67350   0.90430   0.86350   0.01267  Uiso   1.00
H17    H     0.40690   0.95500   0.77840   0.01267  Uiso   1.00
H18    H     0.42790   0.82450   0.84730   0.01267  Uiso   1.00
H19    H     0.83040   0.06400   0.77360   0.01267  Uiso   1.00
H20    H     0.83070   0.92850   0.61390   0.01267  Uiso   1.00
H21    H     0.03920   0.89630   0.60870   0.01267  Uiso   1.00
H22    H     0.45290   0.19780   0.67140   0.01267  Uiso   1.00
H23    H     0.55250   0.96910   0.61610   0.01267  Uiso   1.00
H24    H     0.43250   0.05090   0.53230   0.01267  Uiso   1.00
H25    H     0.77680   0.42040   0.37740   0.01267  Uiso   1.00
H26    H     0.12050   0.28770   0.29750   0.01267  Uiso   1.00
H27    H     0.09170   0.41280   0.21840   0.01267  Uiso   1.00
H28    H     0.82780   0.36350   0.59570   0.01267  Uiso   1.00
H29    H     0.61190   0.27840   0.54500   0.01267  Uiso   1.00
H30    H     0.50240   0.34730   0.67550   0.01267  Uiso   1.00
H31    H     0.14440   0.27360   0.43600   0.01267  Uiso   1.00
H32    H     0.00920   0.11390   0.57150   0.01267  Uiso   1.00
H33    H     0.18550   0.10870   0.60370   0.01267  Uiso   1.00
H34    H     0.90070   0.17140   0.30220   0.01267  Uiso   1.00
H35    H     0.77160   0.11610   0.53090   0.01267  Uiso   1.00
H36    H     0.73340   0.03230   0.44910   0.01267  Uiso   1.00
H37    H     0.57460   0.57960   0.62260   0.01267  Uiso   1.00
H38    H     0.70570   0.71230   0.70250   0.01267  Uiso   1.00
H39    H     0.72290   0.58720   0.78160   0.01267  Uiso   1.00
H40    H     0.78700   0.63650   0.40430   0.01267  Uiso   1.00
H41    H     0.43530   0.72160   0.45500   0.01267  Uiso   1.00
H42    H     0.52520   0.65270   0.32450   0.01267  Uiso   1.00
H43    H     0.85400   0.72640   0.56400   0.01267  Uiso   1.00
H44    H     0.69460   0.88610   0.42850   0.01267  Uiso   1.00
H45    H     0.89790   0.89130   0.39630   0.01267  Uiso   1.00
H46    H     0.37430   0.82860   0.69780   0.01267  Uiso   1.00
H47    H     0.41860   0.88390   0.46910   0.01267  Uiso   1.00
H48    H     0.21480   0.96770   0.55090   0.01267  Uiso   1.00
H49    H     0.90420   0.92040   0.12260   0.01267  Uiso   1.00
H50    H     0.16800   0.78770   0.20250   0.01267  Uiso   1.00
H51    H     0.06010   0.91280   0.28160   0.01267  Uiso   1.00
H52    H     0.17350   0.86350   0.90430   0.01267  Uiso   1.00
H53    H     0.90690   0.77840   0.95500   0.01267  Uiso   1.00
H54    H     0.92790   0.84730   0.82450   0.01267  Uiso   1.00
H55    H     0.33040   0.77360   0.06400   0.01267  Uiso   1.00
H56    H     0.33070   0.61390   0.92850   0.01267  Uiso   1.00
H57    H     0.53920   0.60870   0.89630   0.01267  Uiso   1.00
H58    H     0.95290   0.67140   0.19780   0.01267  Uiso   1.00
H59    H     0.05250   0.61610   0.96910   0.01267  Uiso   1.00
H60    H     0.93250   0.53230   0.05090   0.01267  Uiso   1.00
H61    H     0.94720   0.07960   0.87740   0.01267  Uiso   1.00
H62    H     0.15820   0.21230   0.79750   0.01267  Uiso   1.00
H63    H     0.25450   0.08720   0.71840   0.01267  Uiso   1.00
H64    H     0.94130   0.13650   0.09570   0.01267  Uiso   1.00
H65    H     0.64030   0.22160   0.04500   0.01267  Uiso   1.00
H66    H     0.59970   0.15270   0.17550   0.01267  Uiso   1.00
H67    H     0.16800   0.22640   0.93600   0.01267  Uiso   1.00
H68    H     0.87310   0.38610   0.07150   0.01267  Uiso   1.00
H69    H     0.04420   0.39130   0.10370   0.01267  Uiso   1.00
H70    H     0.82210   0.32860   0.80220   0.01267  Uiso   1.00
H71    H     0.63770   0.38390   0.03090   0.01267  Uiso   1.00
H72    H     0.51570   0.46770   0.94910   0.01267  Uiso   1.00
H73    H     0.07460   0.62260   0.57960   0.01267  Uiso   1.00
H74    H     0.20570   0.70250   0.71230   0.01267  Uiso   1.00
H75    H     0.22290   0.78160   0.58720   0.01267  Uiso   1.00
H76    H     0.28700   0.40430   0.63650   0.01267  Uiso   1.00
H77    H     0.93530   0.45500   0.72160   0.01267  Uiso   1.00
H78    H     0.02520   0.32450   0.65270   0.01267  Uiso   1.00
H79    H     0.35400   0.56400   0.72640   0.01267  Uiso   1.00
H80    H     0.19460   0.42850   0.88610   0.01267  Uiso   1.00
H81    H     0.39790   0.39630   0.89130   0.01267  Uiso   1.00
H82    H     0.87430   0.69780   0.82860   0.01267  Uiso   1.00
H83    H     0.91860   0.46910   0.88390   0.01267  Uiso   1.00
H84    H     0.71480   0.55090   0.96770   0.01267  Uiso   1.00
H85    H     0.27680   0.37740   0.42040   0.01267  Uiso   1.00
H86    H     0.62050   0.29750   0.28770   0.01267  Uiso   1.00
H87    H     0.59170   0.21840   0.41280   0.01267  Uiso   1.00
H88    H     0.32780   0.59570   0.36350   0.01267  Uiso   1.00
H89    H     0.11190   0.54500   0.27840   0.01267  Uiso   1.00
H90    H     0.00240   0.67550   0.34730   0.01267  Uiso   1.00
H91    H     0.64440   0.43600   0.27360   0.01267  Uiso   1.00
H92    H     0.50920   0.57150   0.11390   0.01267  Uiso   1.00
H93    H     0.68550   0.60370   0.10870   0.01267  Uiso   1.00
H94    H     0.40070   0.30220   0.17140   0.01267  Uiso   1.00
H95    H     0.27160   0.53090   0.11610   0.01267  Uiso   1.00
H96    H     0.23340   0.44910   0.03230   0.01267  Uiso   1.00
C1     C     0.51150   0.84690   0.09830   0.01267  Uiso   1.00
C2     C     0.62530   0.80500   0.17040   0.01267  Uiso   1.00
C3     C     0.67840   0.75980   0.10140   0.01267  Uiso   1.00
C4     C     0.36050   0.09920   0.14800   0.01267  Uiso   1.00
C5     C     0.19790   0.07070   0.19550   0.01267  Uiso   1.00
C6     C     0.17620   0.14330   0.15630   0.01267  Uiso   1.00
C7     C     0.61510   0.97470   0.26710   0.01267  Uiso   1.00
C8     C     0.45430   0.04730   0.35350   0.01267  Uiso   1.00
C9     C     0.55020   0.06540   0.35620   0.01267  Uiso   1.00
C10    C     0.25970   0.84980   0.35280   0.01267  Uiso   1.00
C11    C     0.16090   0.97420   0.38200   0.01267  Uiso   1.00
C12    C     0.09340   0.92890   0.42890   0.01267  Uiso   1.00
C13    C     0.45670   0.15310   0.90170   0.01267  Uiso   1.00
C14    C     0.60070   0.19500   0.82960   0.01267  Uiso   1.00
C15    C     0.53960   0.24020   0.89860   0.01267  Uiso   1.00
C16    C     0.60770   0.90080   0.85200   0.01267  Uiso   1.00
C17    C     0.46410   0.92930   0.80450   0.01267  Uiso   1.00
C18    C     0.47580   0.85670   0.84370   0.01267  Uiso   1.00
C19    C     0.85690   0.02530   0.73290   0.01267  Uiso   1.00
C20    C     0.85510   0.95270   0.64650   0.01267  Uiso   1.00
C21    C     0.97180   0.93460   0.64380   0.01267  Uiso   1.00
C22    C     0.46230   0.15020   0.64720   0.01267  Uiso   1.00
C23    C     0.51710   0.02580   0.61800   0.01267  Uiso   1.00
C24    C     0.45120   0.07110   0.57110   0.01267  Uiso   1.00
C25    C     0.85980   0.40170   0.34690   0.01267  Uiso   1.00
C26    C     0.04570   0.32960   0.30500   0.01267  Uiso   1.00
C27    C     0.02980   0.39860   0.25980   0.01267  Uiso   1.00
C28    C     0.75850   0.35200   0.59920   0.01267  Uiso   1.00
C29    C     0.64340   0.30450   0.57070   0.01267  Uiso   1.00
C30    C     0.58250   0.34370   0.64330   0.01267  Uiso   1.00
C31    C     0.13220   0.23290   0.47470   0.01267  Uiso   1.00
C32    C     0.05780   0.14650   0.54730   0.01267  Uiso   1.00
C33    C     0.15640   0.14380   0.56540   0.01267  Uiso   1.00
C34    C     0.86250   0.14720   0.34980   0.01267  Uiso   1.00
C35    C     0.79290   0.11800   0.47420   0.01267  Uiso   1.00
C36    C     0.77230   0.07110   0.42890   0.01267  Uiso   1.00
C37    C     0.60840   0.59830   0.65310   0.01267  Uiso   1.00
C38    C     0.68030   0.67040   0.69500   0.01267  Uiso   1.00
C39    C     0.68820   0.60140   0.74020   0.01267  Uiso   1.00
C40    C     0.70970   0.64800   0.40080   0.01267  Uiso   1.00
C41    C     0.51860   0.69550   0.42930   0.01267  Uiso   1.00
C42    C     0.56950   0.65630   0.35670   0.01267  Uiso   1.00
C43    C     0.83980   0.76710   0.52530   0.01267  Uiso   1.00
C44    C     0.75160   0.85350   0.45270   0.01267  Uiso   1.00
C45    C     0.86560   0.85620   0.43460   0.01267  Uiso   1.00
C46    C     0.35950   0.85280   0.65020   0.01267  Uiso   1.00
C47    C     0.38510   0.88200   0.52580   0.01267  Uiso   1.00
C48    C     0.27230   0.92890   0.57110   0.01267  Uiso   1.00
C49    C     0.95670   0.90170   0.15310   0.01267  Uiso   1.00
C50    C     0.10070   0.82960   0.19500   0.01267  Uiso   1.00
C51    C     0.03960   0.89860   0.24020   0.01267  Uiso   1.00
C52    C     0.10770   0.85200   0.90080   0.01267  Uiso   1.00
C53    C     0.96410   0.80450   0.92930   0.01267  Uiso   1.00
C54    C     0.97580   0.84370   0.85670   0.01267  Uiso   1.00
C55    C     0.35690   0.73290   0.02530   0.01267  Uiso   1.00
C56    C     0.35510   0.64650   0.95270   0.01267  Uiso   1.00
C57    C     0.47180   0.64380   0.93460   0.01267  Uiso   1.00
C58    C     0.96230   0.64720   0.15020   0.01267  Uiso   1.00
C59    C     0.01710   0.61800   0.02580   0.01267  Uiso   1.00
C60    C     0.95120   0.57110   0.07110   0.01267  Uiso   1.00
C61    C     0.01150   0.09830   0.84690   0.01267  Uiso   1.00
C62    C     0.12530   0.17040   0.80500   0.01267  Uiso   1.00
C63    C     0.17840   0.10140   0.75980   0.01267  Uiso   1.00
C64    C     0.86050   0.14800   0.09920   0.01267  Uiso   1.00
C65    C     0.69790   0.19550   0.07070   0.01267  Uiso   1.00
C66    C     0.67620   0.15630   0.14330   0.01267  Uiso   1.00
C67    C     0.11510   0.26710   0.97470   0.01267  Uiso   1.00
C68    C     0.95430   0.35350   0.04730   0.01267  Uiso   1.00
C69    C     0.05020   0.35620   0.06540   0.01267  Uiso   1.00
C70    C     0.75970   0.35280   0.84980   0.01267  Uiso   1.00
C71    C     0.66090   0.38200   0.97420   0.01267  Uiso   1.00
C72    C     0.59340   0.42890   0.92890   0.01267  Uiso   1.00
C73    C     0.10840   0.65310   0.59830   0.01267  Uiso   1.00
C74    C     0.18030   0.69500   0.67040   0.01267  Uiso   1.00
C75    C     0.18820   0.74020   0.60140   0.01267  Uiso   1.00
C76    C     0.20970   0.40080   0.64800   0.01267  Uiso   1.00
C77    C     0.01860   0.42930   0.69550   0.01267  Uiso   1.00
C78    C     0.06950   0.35670   0.65630   0.01267  Uiso   1.00
C79    C     0.33980   0.52530   0.76710   0.01267  Uiso   1.00
C80    C     0.25160   0.45270   0.85350   0.01267  Uiso   1.00
C81    C     0.36560   0.43460   0.85620   0.01267  Uiso   1.00
C82    C     0.85950   0.65020   0.85280   0.01267  Uiso   1.00
C83    C     0.88510   0.52580   0.88200   0.01267  Uiso   1.00
C84    C     0.77230   0.57110   0.92890   0.01267  Uiso   1.00
C85    C     0.35980   0.34690   0.40170   0.01267  Uiso   1.00
C86    C     0.54570   0.30500   0.32960   0.01267  Uiso   1.00
C87    C     0.52980   0.25980   0.39860   0.01267  Uiso   1.00
C88    C     0.25850   0.59920   0.35200   0.01267  Uiso   1.00
C89    C     0.14340   0.57070   0.30450   0.01267  Uiso   1.00
C90    C     0.08250   0.64330   0.34370   0.01267  Uiso   1.00
C91    C     0.63220   0.47470   0.23290   0.01267  Uiso   1.00
C92    C     0.55780   0.54730   0.14650   0.01267  Uiso   1.00
C93    C     0.65640   0.56540   0.14380   0.01267  Uiso   1.00
C94    C     0.36250   0.34980   0.14720   0.01267  Uiso   1.00
C95    C     0.29290   0.47420   0.11800   0.01267  Uiso   1.00
C96    C     0.27230   0.42890   0.07110   0.01267  Uiso   1.00
N1     N     0.51590   0.86390   0.17030   0.01267  Uiso   1.00
N2     N     0.60310   0.78420   0.05560   0.01267  Uiso   1.00
N3     N     0.31720   0.04050   0.19110   0.01267  Uiso   1.00
N4     N     0.28110   0.16340   0.12240   0.01267  Uiso   1.00
N5     N     0.49440   0.98780   0.29540   0.01267  Uiso   1.00
N6     N     0.65480   0.02010   0.30030   0.01267  Uiso   1.00
N7     N     0.26690   0.92430   0.33190   0.01267  Uiso   1.00
N8     N     0.15750   0.84890   0.41010   0.01267  Uiso   1.00
N9     N     0.55010   0.13610   0.82970   0.01267  Uiso   1.00
N10    N     0.44290   0.21580   0.94440   0.01267  Uiso   1.00
N11    N     0.54880   0.95950   0.80890   0.01267  Uiso   1.00
N12    N     0.56690   0.83660   0.87760   0.01267  Uiso   1.00
N13    N     0.77760   0.01220   0.70460   0.01267  Uiso   1.00
N14    N     0.97520   0.97990   0.69970   0.01267  Uiso   1.00
N15    N     0.52310   0.07570   0.66810   0.01267  Uiso   1.00
N16    N     0.41650   0.15110   0.58990   0.01267  Uiso   1.00
N17    N     0.93620   0.32970   0.36390   0.01267  Uiso   1.00
N18    N     0.90870   0.44440   0.28420   0.01267  Uiso   1.00
N19    N     0.75830   0.30890   0.54050   0.01267  Uiso   1.00
N20    N     0.65350   0.37760   0.66340   0.01267  Uiso   1.00
N21    N     0.03980   0.20460   0.48780   0.01267  Uiso   1.00
N22    N     0.20510   0.19970   0.52010   0.01267  Uiso   1.00
N23    N     0.84880   0.16810   0.42430   0.01267  Uiso   1.00
N24    N     0.81760   0.08990   0.34890   0.01267  Uiso   1.00
N25    N     0.62980   0.67030   0.63610   0.01267  Uiso   1.00
N26    N     0.63730   0.55560   0.71580   0.01267  Uiso   1.00
N27    N     0.60770   0.69110   0.45950   0.01267  Uiso   1.00
N28    N     0.69450   0.62240   0.33660   0.01267  Uiso   1.00
N29    N     0.73220   0.79540   0.51220   0.01267  Uiso   1.00
N30    N     0.92490   0.80030   0.47990   0.01267  Uiso   1.00
N31    N     0.44120   0.83190   0.57570   0.01267  Uiso   1.00
N32    N     0.25640   0.91010   0.65110   0.01267  Uiso   1.00
N33    N     0.05010   0.82970   0.13610   0.01267  Uiso   1.00
N34    N     0.94290   0.94440   0.21580   0.01267  Uiso   1.00
N35    N     0.04880   0.80890   0.95950   0.01267  Uiso   1.00
N36    N     0.06690   0.87760   0.83660   0.01267  Uiso   1.00
N37    N     0.27760   0.70460   0.01220   0.01267  Uiso   1.00
N38    N     0.47520   0.69970   0.97990   0.01267  Uiso   1.00
N39    N     0.02310   0.66810   0.07570   0.01267  Uiso   1.00
N40    N     0.91650   0.58990   0.15110   0.01267  Uiso   1.00
N41    N     0.01590   0.17030   0.86390   0.01267  Uiso   1.00
N42    N     0.10310   0.05560   0.78420   0.01267  Uiso   1.00
N43    N     0.81720   0.19110   0.04050   0.01267  Uiso   1.00
N44    N     0.78110   0.12240   0.16340   0.01267  Uiso   1.00
N45    N     0.99440   0.29540   0.98780   0.01267  Uiso   1.00
N46    N     0.15480   0.30030   0.02010   0.01267  Uiso   1.00
N47    N     0.76690   0.33190   0.92430   0.01267  Uiso   1.00
N48    N     0.65750   0.41010   0.84890   0.01267  Uiso   1.00
N49    N     0.12980   0.63610   0.67030   0.01267  Uiso   1.00
N50    N     0.13730   0.71580   0.55560   0.01267  Uiso   1.00
N51    N     0.10770   0.45950   0.69110   0.01267  Uiso   1.00
N52    N     0.19450   0.33660   0.62240   0.01267  Uiso   1.00
N53    N     0.23220   0.51220   0.79540   0.01267  Uiso   1.00
N54    N     0.42490   0.47990   0.80030   0.01267  Uiso   1.00
N55    N     0.94120   0.57570   0.83190   0.01267  Uiso   1.00
N56    N     0.75640   0.65110   0.91010   0.01267  Uiso   1.00
N57    N     0.43620   0.36390   0.32970   0.01267  Uiso   1.00
N58    N     0.40870   0.28420   0.44440   0.01267  Uiso   1.00
N59    N     0.25830   0.54050   0.30890   0.01267  Uiso   1.00
N60    N     0.15350   0.66340   0.37760   0.01267  Uiso   1.00
N61    N     0.53980   0.48780   0.20460   0.01267  Uiso   1.00
N62    N     0.70510   0.52010   0.19970   0.01267  Uiso   1.00
N63    N     0.34880   0.42430   0.16810   0.01267  Uiso   1.00
N64    N     0.31760   0.34890   0.08990   0.01267  Uiso   1.00
