data_HEBZAR_clean
_audit_creation_date              2014-07-02
_audit_creation_method            'Materials Studio'
_symmetry_space_group_name_H-M    'P1'
_symmetry_Int_Tables_number       1
_symmetry_cell_setting            triclinic
loop_
_symmetry_equiv_pos_as_xyz
  x,y,z
_cell_length_a                    12.0537
_cell_length_b                    12.0537
_cell_length_c                    12.0537
_cell_angle_alpha                 95.8587
_cell_angle_beta                  95.8587
_cell_angle_gamma                 95.8587
loop_
_atom_site_label
_atom_site_type_symbol
_atom_site_fract_x
_atom_site_fract_y
_atom_site_fract_z
_atom_site_U_iso_or_equiv
_atom_site_adp_type
_atom_site_occupancy
Zn1    Zn    0.05243   0.32380   0.75494   0.01267  Uiso   1.00
Zn2    Zn    0.75494   0.05243   0.32380   0.01267  Uiso   1.00
Zn3    Zn    0.32380   0.75494   0.05243   0.01267  Uiso   1.00
Zn4    Zn    0.94757   0.67620   0.24506   0.01267  Uiso   1.00
Zn5    Zn    0.24506   0.94757   0.67620   0.01267  Uiso   1.00
Zn6    Zn    0.67620   0.24506   0.94757   0.01267  Uiso   1.00
H1     H     0.12200   0.69700   0.63200   0.01267  Uiso   1.00
H2     H     0.06000   0.60000   0.54200   0.01267  Uiso   1.00
H3     H     0.30000   0.90100   0.90400   0.01267  Uiso   1.00
H4     H     0.63200   0.12200   0.69700   0.01267  Uiso   1.00
H5     H     0.54200   0.06000   0.60000   0.01267  Uiso   1.00
H6     H     0.90400   0.30000   0.90100   0.01267  Uiso   1.00
H7     H     0.69700   0.63200   0.12200   0.01267  Uiso   1.00
H8     H     0.60000   0.54200   0.06000   0.01267  Uiso   1.00
H9     H     0.90100   0.90400   0.30000   0.01267  Uiso   1.00
H10    H     0.87800   0.30300   0.36800   0.01267  Uiso   1.00
H11    H     0.94000   0.40000   0.45800   0.01267  Uiso   1.00
H12    H     0.70000   0.09900   0.09600   0.01267  Uiso   1.00
H13    H     0.36800   0.87800   0.30300   0.01267  Uiso   1.00
H14    H     0.45800   0.94000   0.40000   0.01267  Uiso   1.00
H15    H     0.09600   0.70000   0.09900   0.01267  Uiso   1.00
H16    H     0.30300   0.36800   0.87800   0.01267  Uiso   1.00
H17    H     0.40000   0.45800   0.94000   0.01267  Uiso   1.00
H18    H     0.09900   0.09600   0.70000   0.01267  Uiso   1.00
C1     C     0.16090   0.51960   0.94990   0.01267  Uiso   1.00
C2     C     0.08610   0.53760   0.66230   0.01267  Uiso   1.00
C3     C     0.13200   0.56440   0.78220   0.01267  Uiso   1.00
C4     C     0.18480   0.65600   0.85140   0.01267  Uiso   1.00
C5     C     0.22840   0.77200   0.83130   0.01267  Uiso   1.00
C6     C     0.94990   0.16090   0.51960   0.01267  Uiso   1.00
C7     C     0.66230   0.08610   0.53760   0.01267  Uiso   1.00
C8     C     0.78220   0.13200   0.56440   0.01267  Uiso   1.00
C9     C     0.85140   0.18480   0.65600   0.01267  Uiso   1.00
C10    C     0.83130   0.22840   0.77200   0.01267  Uiso   1.00
C11    C     0.51960   0.94990   0.16090   0.01267  Uiso   1.00
C12    C     0.53760   0.66230   0.08610   0.01267  Uiso   1.00
C13    C     0.56440   0.78220   0.13200   0.01267  Uiso   1.00
C14    C     0.65600   0.85140   0.18480   0.01267  Uiso   1.00
C15    C     0.77200   0.83130   0.22840   0.01267  Uiso   1.00
C16    C     0.83910   0.48040   0.05010   0.01267  Uiso   1.00
C17    C     0.91390   0.46240   0.33770   0.01267  Uiso   1.00
C18    C     0.86800   0.43560   0.21780   0.01267  Uiso   1.00
C19    C     0.81520   0.34400   0.14860   0.01267  Uiso   1.00
C20    C     0.77160   0.22800   0.16870   0.01267  Uiso   1.00
C21    C     0.05010   0.83910   0.48040   0.01267  Uiso   1.00
C22    C     0.33770   0.91390   0.46240   0.01267  Uiso   1.00
C23    C     0.21780   0.86800   0.43560   0.01267  Uiso   1.00
C24    C     0.14860   0.81520   0.34400   0.01267  Uiso   1.00
C25    C     0.16870   0.77160   0.22800   0.01267  Uiso   1.00
C26    C     0.48040   0.05010   0.83910   0.01267  Uiso   1.00
C27    C     0.46240   0.33770   0.91390   0.01267  Uiso   1.00
C28    C     0.43560   0.21780   0.86800   0.01267  Uiso   1.00
C29    C     0.34400   0.14860   0.81520   0.01267  Uiso   1.00
C30    C     0.22800   0.16870   0.77160   0.01267  Uiso   1.00
Br1    Br    0.15912   0.43846   0.06951   0.01267  Uiso   1.00
Br2    Br    0.06951   0.15912   0.43846   0.01267  Uiso   1.00
Br3    Br    0.43846   0.06951   0.15912   0.01267  Uiso   1.00
Br4    Br    0.84088   0.56154   0.93049   0.01267  Uiso   1.00
Br5    Br    0.93049   0.84088   0.56154   0.01267  Uiso   1.00
Br6    Br    0.56154   0.93049   0.84088   0.01267  Uiso   1.00
N1     N     0.20460   0.62740   0.95740   0.01267  Uiso   1.00
N2     N     0.11670   0.47800   0.84580   0.01267  Uiso   1.00
N3     N     0.09080   0.61600   0.59690   0.01267  Uiso   1.00
N4     N     0.28280   0.83130   0.91800   0.01267  Uiso   1.00
N5     N     0.95740   0.20460   0.62740   0.01267  Uiso   1.00
N6     N     0.84580   0.11670   0.47800   0.01267  Uiso   1.00
N7     N     0.59690   0.09080   0.61600   0.01267  Uiso   1.00
N8     N     0.91800   0.28280   0.83130   0.01267  Uiso   1.00
N9     N     0.62740   0.95740   0.20460   0.01267  Uiso   1.00
N10    N     0.47800   0.84580   0.11670   0.01267  Uiso   1.00
N11    N     0.61600   0.59690   0.09080   0.01267  Uiso   1.00
N12    N     0.83130   0.91800   0.28280   0.01267  Uiso   1.00
N13    N     0.79540   0.37260   0.04260   0.01267  Uiso   1.00
N14    N     0.88330   0.52200   0.15420   0.01267  Uiso   1.00
N15    N     0.90920   0.38400   0.40310   0.01267  Uiso   1.00
N16    N     0.71720   0.16870   0.08200   0.01267  Uiso   1.00
N17    N     0.04260   0.79540   0.37260   0.01267  Uiso   1.00
N18    N     0.15420   0.88330   0.52200   0.01267  Uiso   1.00
N19    N     0.40310   0.90920   0.38400   0.01267  Uiso   1.00
N20    N     0.08200   0.71720   0.16870   0.01267  Uiso   1.00
N21    N     0.37260   0.04260   0.79540   0.01267  Uiso   1.00
N22    N     0.52200   0.15420   0.88330   0.01267  Uiso   1.00
N23    N     0.38400   0.40310   0.90920   0.01267  Uiso   1.00
N24    N     0.16870   0.08200   0.71720   0.01267  Uiso   1.00
O1     O     0.04326   0.43746   0.63116   0.01267  Uiso   1.00
O2     O     0.20683   0.80233   0.73383   0.01267  Uiso   1.00
O3     O     0.63116   0.04326   0.43746   0.01267  Uiso   1.00
O4     O     0.73383   0.20683   0.80233   0.01267  Uiso   1.00
O5     O     0.43746   0.63116   0.04326   0.01267  Uiso   1.00
O6     O     0.80233   0.73383   0.20683   0.01267  Uiso   1.00
O7     O     0.95674   0.56254   0.36884   0.01267  Uiso   1.00
O8     O     0.79317   0.19767   0.26617   0.01267  Uiso   1.00
O9     O     0.36884   0.95674   0.56254   0.01267  Uiso   1.00
O10    O     0.26617   0.79317   0.19767   0.01267  Uiso   1.00
O11    O     0.56254   0.36884   0.95674   0.01267  Uiso   1.00
O12    O     0.19767   0.26617   0.79317   0.01267  Uiso   1.00
