data_LETFEW_clean
_audit_creation_date              2014-07-02
_audit_creation_method            'Materials Studio'
_symmetry_space_group_name_H-M    'P1'
_symmetry_Int_Tables_number       1
_symmetry_cell_setting            triclinic
loop_
_symmetry_equiv_pos_as_xyz
  x,y,z
_cell_length_a                    6.5561
_cell_length_b                    11.4699
_cell_length_c                    20.1558
_cell_angle_alpha                 87.3362
_cell_angle_beta                  80.6406
_cell_angle_gamma                 73.3936
loop_
_atom_site_label
_atom_site_type_symbol
_atom_site_fract_x
_atom_site_fract_y
_atom_site_fract_z
_atom_site_U_iso_or_equiv
_atom_site_adp_type
_atom_site_occupancy
Cu1    Cu    0.31580   0.65340   0.34660   0.01267  Uiso   1.00
Cu2    Cu    0.33760   0.34660   0.34660   0.01267  Uiso   1.00
Cu3    Cu    0.21920   0.84660   0.84660   0.01267  Uiso   1.00
Cu4    Cu    0.93420   0.15340   0.84660   0.01267  Uiso   1.00
Cu5    Cu    0.21797  -0.00000   0.56406   0.01267  Uiso   1.00
Cu6    Cu    0.46797   0.50000   0.06406   0.01267  Uiso   1.00
Cu7    Cu    0.25202   0.50000   0.49596   0.01267  Uiso   1.00
Cu8    Cu    0.00202   0.00000   0.99596   0.01267  Uiso   1.00
H1     H     0.26720   0.88960   0.40980   0.01267  Uiso   1.00
H2     H     0.22140   0.71480   0.58540   0.01267  Uiso   1.00
H3     H     0.30290   0.83220   0.68760   0.01267  Uiso   1.00
H4     H     0.32300   0.11040   0.40980   0.01267  Uiso   1.00
H5     H     0.19320   0.28520   0.58540   0.01267  Uiso   1.00
H6     H     0.00950   0.16780   0.68760   0.01267  Uiso   1.00
H7     H     0.40680   0.61040   0.90980   0.01267  Uiso   1.00
H8     H     0.18620   0.78520   0.08540   0.01267  Uiso   1.00
H9     H     0.38510   0.66780   0.18760   0.01267  Uiso   1.00
H10    H     0.68340   0.38960   0.90980   0.01267  Uiso   1.00
H11    H     0.72840   0.21480   0.08540   0.01267  Uiso   1.00
H12    H     0.42730   0.33220   0.18760   0.01267  Uiso   1.00
C1     C     0.26040   0.82960   0.44360   0.01267  Uiso   1.00
C2     C     0.23800   0.73680   0.53920   0.01267  Uiso   1.00
C3     C     0.22520   0.91080   0.70480   0.01267  Uiso   1.00
C4     C     0.29600   0.17040   0.44360   0.01267  Uiso   1.00
C5     C     0.22280   0.26320   0.53920   0.01267  Uiso   1.00
C6     C     0.07000   0.08920   0.70480   0.01267  Uiso   1.00
C7     C     0.34000   0.67040   0.94360   0.01267  Uiso   1.00
C8     C     0.22480   0.76320   0.03920   0.01267  Uiso   1.00
C9     C     0.38600   0.58920   0.20480   0.01267  Uiso   1.00
C10    C     0.71640   0.32960   0.94360   0.01267  Uiso   1.00
C11    C     0.73600   0.23680   0.03920   0.01267  Uiso   1.00
C12    C     0.40920   0.41080   0.20480   0.01267  Uiso   1.00
N1     N     0.23000   0.85620   0.51380   0.01267  Uiso   1.00
N2     N     0.27720   0.72160   0.43000   0.01267  Uiso   1.00
N3     N     0.27290   0.66320   0.48900   0.01267  Uiso   1.00
N4     N     0.17520   0.93180   0.76780   0.01267  Uiso   1.00
N5     N     0.25620   0.14380   0.51380   0.01267  Uiso   1.00
N6     N     0.29280   0.27840   0.43000   0.01267  Uiso   1.00
N7     N     0.23810   0.33680   0.48900   0.01267  Uiso   1.00
N8     N     0.05700   0.06820   0.76780   0.01267  Uiso   1.00
N9     N     0.33620   0.64380   0.01380   0.01267  Uiso   1.00
N10    N     0.24880   0.77840   0.93000   0.01267  Uiso   1.00
N11    N     0.18610   0.83680   0.98900   0.01267  Uiso   1.00
N12    N     0.35700   0.56820   0.26780   0.01267  Uiso   1.00
N13    N     0.65000   0.35620   0.01380   0.01267  Uiso   1.00
N14    N     0.82120   0.22160   0.93000   0.01267  Uiso   1.00
N15    N     0.82490   0.16320   0.98900   0.01267  Uiso   1.00
N16    N     0.37520   0.43180   0.26780   0.01267  Uiso   1.00
N17    N     0.16680   0.00000   0.66640   0.01267  Uiso   1.00
N18    N     0.41680   0.50000   0.16640   0.01267  Uiso   1.00
Cu9    Cu    0.72950   0.84662   0.78578   0.01267  Uiso   1.00
Cu10   Cu    0.48472   0.15338   0.78578   0.01267  Uiso   1.00
Cu11   Cu    0.82612   0.65338   0.28578   0.01267  Uiso   1.00
Cu12   Cu    0.88810   0.34662   0.28578   0.01267  Uiso   1.00
Cu13   Cu    0.99896   0.50000   0.00208   0.01267  Uiso   1.00
Cu14   Cu    0.74896   0.00000   0.50208   0.01267  Uiso   1.00
Cu15   Cu    0.53342   0.00000   0.93316   0.01267  Uiso   1.00
Cu16   Cu    0.78342   0.50000   0.43316   0.01267  Uiso   1.00
H13    H     0.71460   0.78140   0.02500   0.01267  Uiso   1.00
H14    H     0.92540   0.59820   0.85340   0.01267  Uiso   1.00
H15    H     0.87270   0.68080   0.13000   0.01267  Uiso   1.00
H16    H     0.26040   0.21860   0.02500   0.01267  Uiso   1.00
H17    H     0.22120   0.40180   0.85340   0.01267  Uiso   1.00
H18    H     0.99730   0.31920   0.13000   0.01267  Uiso   1.00
H19    H     0.74600   0.71860   0.52500   0.01267  Uiso   1.00
H20    H     0.77360   0.90180   0.35340   0.01267  Uiso   1.00
H21    H     0.80350   0.81920   0.63000   0.01267  Uiso   1.00
H22    H     0.72900   0.28140   0.52500   0.01267  Uiso   1.00
H23    H     0.87300   0.09820   0.35340   0.01267  Uiso   1.00
H24    H     0.56650   0.18080   0.63000   0.01267  Uiso   1.00
C13    C     0.74760   0.76160   0.97860   0.01267  Uiso   1.00
C14    C     0.86380   0.66200   0.88520   0.01267  Uiso   1.00
C15    C     0.89610   0.59860   0.14420   0.01267  Uiso   1.00
C16    C     0.27380   0.23840   0.97860   0.01267  Uiso   1.00
C17    C     0.25100   0.33800   0.88520   0.01267  Uiso   1.00
C18    C     0.95970   0.40140   0.14420   0.01267  Uiso   1.00
C19    C     0.75920   0.73840   0.47860   0.01267  Uiso   1.00
C20    C     0.77580   0.83800   0.38520   0.01267  Uiso   1.00
C21    C     0.74470   0.90140   0.64420   0.01267  Uiso   1.00
C22    C     0.76220   0.26160   0.47860   0.01267  Uiso   1.00
C23    C     0.83900   0.16200   0.38520   0.01267  Uiso   1.00
C24    C     0.61110   0.09860   0.64420   0.01267  Uiso   1.00
N19    N     0.86500   0.64560   0.95140   0.01267  Uiso   1.00
N20    N     0.69220   0.83660   0.93040   0.01267  Uiso   1.00
N21    N     0.77196   0.77140   0.86868   0.01267  Uiso   1.00
N22    N     0.88216   0.56300   0.20788   0.01267  Uiso   1.00
N23    N     0.18360   0.35440   0.95140   0.01267  Uiso   1.00
N24    N     0.37740   0.16340   0.93040   0.01267  Uiso   1.00
N25    N     0.35936   0.22860   0.86868   0.01267  Uiso   1.00
N26    N     0.90996   0.43700   0.20788   0.01267  Uiso   1.00
N27    N     0.76060   0.85440   0.45140   0.01267  Uiso   1.00
N28    N     0.77880   0.66340   0.43040   0.01267  Uiso   1.00
N29    N     0.79336   0.72860   0.36868   0.01267  Uiso   1.00
N30    N     0.69516   0.93700   0.70788   0.01267  Uiso   1.00
N31    N     0.78800   0.14560   0.45140   0.01267  Uiso   1.00
N32    N     0.79080   0.33660   0.43040   0.01267  Uiso   1.00
N33    N     0.83796   0.27140   0.36868   0.01267  Uiso   1.00
N34    N     0.59696   0.06300   0.70788   0.01267  Uiso   1.00
N35    N     0.94940   0.50000   0.10120   0.01267  Uiso   1.00
N36    N     0.69940   0.00000   0.60120   0.01267  Uiso   1.00
