data_SEGBOX_clean
_audit_creation_date              2014-07-02
_audit_creation_method            'Materials Studio'
_symmetry_space_group_name_H-M    'P1'
_symmetry_Int_Tables_number       1
_symmetry_cell_setting            triclinic
loop_
_symmetry_equiv_pos_as_xyz
  x,y,z
_cell_length_a                    4.7883
_cell_length_b                    19.5201
_cell_length_c                    19.5201
_cell_angle_alpha                 60.6613
_cell_angle_beta                  85.3099
_cell_angle_gamma                 94.6901
loop_
_atom_site_label
_atom_site_type_symbol
_atom_site_fract_x
_atom_site_fract_y
_atom_site_fract_z
_atom_site_U_iso_or_equiv
_atom_site_adp_type
_atom_site_occupancy
Cu1    Cu    0.00000   0.50000   0.50000   0.01267  Uiso   1.00
Cu2    Cu    0.50000   0.50000   0.00000   0.01267  Uiso   1.00
Cu3    Cu    0.50000   1.00000   0.50000   0.01267  Uiso   1.00
H1     H     0.45860   0.44230   0.18700   0.01267  Uiso   1.00
H2     H     0.68200   0.47490   0.30720   0.01267  Uiso   1.00
H3     H     0.36910   0.64650   0.20640   0.01267  Uiso   1.00
H4     H     0.34000   0.66130   0.08140   0.01267  Uiso   1.00
H5     H     0.00850   0.59440   0.01090   0.01267  Uiso   1.00
H6     H     0.64560   0.18700   0.37070   0.01267  Uiso   1.00
H7     H     0.98920   0.30720   0.21790   0.01267  Uiso   1.00
H8     H     0.57550   0.20640   0.14710   0.01267  Uiso   1.00
H9     H     0.42140   0.08140   0.25730   0.01267  Uiso   1.00
H10    H     0.01940   0.01090   0.39470   0.01267  Uiso   1.00
H11    H     0.01630   0.37070   0.44230   0.01267  Uiso   1.00
H12    H     0.20710   0.21790   0.47490   0.01267  Uiso   1.00
H13    H     0.72260   0.14710   0.64650   0.01267  Uiso   1.00
H14    H     0.67870   0.25730   0.66130   0.01267  Uiso   1.00
H15    H     0.41410   0.39470   0.59440   0.01267  Uiso   1.00
H16    H     0.54140   0.55770   0.81300   0.01267  Uiso   1.00
H17    H     0.31800   0.52510   0.69280   0.01267  Uiso   1.00
H18    H     0.63090   0.35350   0.79360   0.01267  Uiso   1.00
H19    H     0.66000   0.33870   0.91860   0.01267  Uiso   1.00
H20    H     0.99150   0.40560   0.98910   0.01267  Uiso   1.00
H21    H     0.35440   0.81300   0.62930   0.01267  Uiso   1.00
H22    H     0.01080   0.69280   0.78210   0.01267  Uiso   1.00
H23    H     0.42450   0.79360   0.85290   0.01267  Uiso   1.00
H24    H     0.57860   0.91860   0.74270   0.01267  Uiso   1.00
H25    H     0.98060   0.98910   0.60530   0.01267  Uiso   1.00
H26    H     0.98370   0.62930   0.55770   0.01267  Uiso   1.00
H27    H     0.79290   0.78210   0.52510   0.01267  Uiso   1.00
H28    H     0.27740   0.85290   0.35350   0.01267  Uiso   1.00
H29    H     0.32130   0.74270   0.33870   0.01267  Uiso   1.00
H30    H     0.58590   0.60530   0.40560   0.01267  Uiso   1.00
C1     C     0.61376   0.48304   0.15646   0.01267  Uiso   1.00
C2     C     0.81357   0.51158   0.26207   0.01267  Uiso   1.00
C3     C     0.99099   0.57474   0.12087   0.01267  Uiso   1.00
C4     C     0.22343   0.61480   0.20011   0.01267  Uiso   1.00
C5     C     0.79667   0.51881   0.18710   0.01267  Uiso   1.00
C6     C     0.06249   0.55324   0.34627   0.01267  Uiso   1.00
C7     C     0.02815   0.55965   0.26760   0.01267  Uiso   1.00
C8     C     0.20945   0.62390   0.12635   0.01267  Uiso   1.00
C9     C     0.77022   0.15646   0.36050   0.01267  Uiso   1.00
C10    C     0.07564   0.26207   0.22635   0.01267  Uiso   1.00
C11    C     0.11186   0.12087   0.30439   0.01267  Uiso   1.00
C12    C     0.42354   0.20011   0.18509   0.01267  Uiso   1.00
C13    C     0.98377   0.18710   0.29409   0.01267  Uiso   1.00
C14    C     0.40876   0.34627   0.10049   0.01267  Uiso   1.00
C15    C     0.29575   0.26760   0.17275   0.01267  Uiso   1.00
C16    C     0.33580   0.12635   0.24975   0.01267  Uiso   1.00
C17    C     0.13072   0.36050   0.48304   0.01267  Uiso   1.00
C18    C     0.30199   0.22635   0.51158   0.01267  Uiso   1.00
C19    C     0.41625   0.30439   0.57474   0.01267  Uiso   1.00
C20    C     0.60863   0.18509   0.61480   0.01267  Uiso   1.00
C21    C     0.27786   0.29409   0.51881   0.01267  Uiso   1.00
C22    C     0.50925   0.10049   0.55324   0.01267  Uiso   1.00
C23    C     0.46850   0.17275   0.55965   0.01267  Uiso   1.00
C24    C     0.58555   0.24975   0.62390   0.01267  Uiso   1.00
C25    C     0.38624   0.51696   0.84354   0.01267  Uiso   1.00
C26    C     0.18643   0.48842   0.73793   0.01267  Uiso   1.00
C27    C     0.00901   0.42526   0.87913   0.01267  Uiso   1.00
C28    C     0.77657   0.38520   0.79989   0.01267  Uiso   1.00
C29    C     0.20333   0.48119   0.81290   0.01267  Uiso   1.00
C30    C     0.93751   0.44676   0.65373   0.01267  Uiso   1.00
C31    C     0.97185   0.44035   0.73240   0.01267  Uiso   1.00
C32    C     0.79055   0.37610   0.87365   0.01267  Uiso   1.00
C33    C     0.22978   0.84354   0.63950   0.01267  Uiso   1.00
C34    C     0.92436   0.73793   0.77365   0.01267  Uiso   1.00
C35    C     0.88814   0.87913   0.69561   0.01267  Uiso   1.00
C36    C     0.57646   0.79989   0.81491   0.01267  Uiso   1.00
C37    C     0.01623   0.81290   0.70591   0.01267  Uiso   1.00
C38    C     0.59124   0.65373   0.89951   0.01267  Uiso   1.00
C39    C     0.70425   0.73240   0.82725   0.01267  Uiso   1.00
C40    C     0.66420   0.87365   0.75025   0.01267  Uiso   1.00
C41    C     0.86928   0.63950   0.51696   0.01267  Uiso   1.00
C42    C     0.69801   0.77365   0.48842   0.01267  Uiso   1.00
C43    C     0.58375   0.69561   0.42526   0.01267  Uiso   1.00
C44    C     0.39137   0.81491   0.38520   0.01267  Uiso   1.00
C45    C     0.72214   0.70591   0.48119   0.01267  Uiso   1.00
C46    C     0.49075   0.89951   0.44676   0.01267  Uiso   1.00
C47    C     0.53150   0.82725   0.44035   0.01267  Uiso   1.00
C48    C     0.41445   0.75025   0.37610   0.01267  Uiso   1.00
N1     N     0.91911   0.57044   0.05741   0.01267  Uiso   1.00
N2     N     0.69077   0.51448   0.07927   0.01267  Uiso   1.00
N3     N     0.97652   0.05741   0.37215   0.01267  Uiso   1.00
N4     N     0.77004   0.07927   0.40625   0.01267  Uiso   1.00
N5     N     0.34867   0.37215   0.57044   0.01267  Uiso   1.00
N6     N     0.17629   0.40625   0.51448   0.01267  Uiso   1.00
N7     N     0.08089   0.42956   0.94259   0.01267  Uiso   1.00
N8     N     0.30923   0.48552   0.92073   0.01267  Uiso   1.00
N9     N     0.02348   0.94259   0.62785   0.01267  Uiso   1.00
N10    N     0.22996   0.92073   0.59375   0.01267  Uiso   1.00
N11    N     0.65133   0.62785   0.42956   0.01267  Uiso   1.00
N12    N     0.82371   0.59375   0.48552   0.01267  Uiso   1.00
O1     O     0.86843   0.50790   0.40461   0.01267  Uiso   1.00
O2     O     0.27370   0.59029   0.35209   0.01267  Uiso   1.00
O3     O     0.27304   0.40461   0.08749   0.01267  Uiso   1.00
O4     O     0.62579   0.35209   0.05762   0.01267  Uiso   1.00
O5     O     0.36053   0.08749   0.50790   0.01267  Uiso   1.00
O6     O     0.68341   0.05762   0.59029   0.01267  Uiso   1.00
O7     O     0.13157   0.49210   0.59539   0.01267  Uiso   1.00
O8     O     0.72630   0.40971   0.64791   0.01267  Uiso   1.00
O9     O     0.72696   0.59539   0.91251   0.01267  Uiso   1.00
O10    O     0.37421   0.64791   0.94238   0.01267  Uiso   1.00
O11    O     0.63947   0.91251   0.49210   0.01267  Uiso   1.00
O12    O     0.31659   0.94238   0.40971   0.01267  Uiso   1.00
