data_OWIVEW_clean
_audit_creation_date              2014-07-02
_audit_creation_method            'Materials Studio'
_symmetry_space_group_name_H-M    'P1'
_symmetry_Int_Tables_number       1
_symmetry_cell_setting            triclinic
loop_
_symmetry_equiv_pos_as_xyz
  x,y,z
_cell_length_a                    19.6841
_cell_length_b                    19.6841
_cell_length_c                    19.6841
_cell_angle_alpha                 109.4710
_cell_angle_beta                  109.4710
_cell_angle_gamma                 109.4710
loop_
_atom_site_label
_atom_site_type_symbol
_atom_site_fract_x
_atom_site_fract_y
_atom_site_fract_z
_atom_site_U_iso_or_equiv
_atom_site_adp_type
_atom_site_occupancy
Mn1    Mn    0.28232   0.28232   0.78232   0.01267  Uiso   1.00
Mn2    Mn    0.00000   0.50000   0.71768   0.01267  Uiso   1.00
Mn3    Mn    0.50000   0.21768   0.50000   0.01267  Uiso   1.00
Mn4    Mn    0.21768   0.00000   0.00000   0.01267  Uiso   1.00
C1     C     0.31510   0.21930   0.89720   0.01267  Uiso   1.00
C2     C     0.33930   0.19370   0.95400   0.01267  Uiso   1.00
C3     C     0.21100   0.16920   0.83900   0.01267  Uiso   1.00
C4     C     0.82210   0.41790   0.60280   0.01267  Uiso   1.00
C5     C     0.73970   0.38530   0.54600   0.01267  Uiso   1.00
C6     C     0.83020   0.37200   0.66100   0.01267  Uiso   1.00
C7     C     0.67790   0.28070   0.59580   0.01267  Uiso   1.00
C8     C     0.76030   0.30630   0.64560   0.01267  Uiso   1.00
C9     C     0.66980   0.33080   0.54180   0.01267  Uiso   1.00
C10    C     0.18490   0.08210   0.90420   0.01267  Uiso   1.00
C11    C     0.16070   0.11470   0.85440   0.01267  Uiso   1.00
C12    C     0.28900   0.12800   0.95820   0.01267  Uiso   1.00
C13    C     0.09580   0.67790   0.78070   0.01267  Uiso   1.00
C14    C     0.14560   0.76030   0.80630   0.01267  Uiso   1.00
C15    C     0.04180   0.66980   0.83080   0.01267  Uiso   1.00
C16    C     0.40420   0.18490   0.58210   0.01267  Uiso   1.00
C17    C     0.35440   0.16070   0.61470   0.01267  Uiso   1.00
C18    C     0.45820   0.28900   0.62800   0.01267  Uiso   1.00
C19    C     0.39720   0.31510   0.71930   0.01267  Uiso   1.00
C20    C     0.45400   0.33930   0.69370   0.01267  Uiso   1.00
C21    C     0.33900   0.21100   0.66920   0.01267  Uiso   1.00
C22    C     0.10280   0.82210   0.91790   0.01267  Uiso   1.00
C23    C     0.04600   0.73970   0.88530   0.01267  Uiso   1.00
C24    C     0.16100   0.83020   0.87200   0.01267  Uiso   1.00
C25    C     0.41790   0.10280   0.32210   0.01267  Uiso   1.00
C26    C     0.38530   0.04600   0.23970   0.01267  Uiso   1.00
C27    C     0.37200   0.16100   0.33020   0.01267  Uiso   1.00
C28    C     0.21930   0.39720   0.81510   0.01267  Uiso   1.00
C29    C     0.19370   0.45400   0.83930   0.01267  Uiso   1.00
C30    C     0.16920   0.33900   0.71100   0.01267  Uiso   1.00
C31    C     0.08210   0.40420   0.68490   0.01267  Uiso   1.00
C32    C     0.11470   0.35440   0.66070   0.01267  Uiso   1.00
C33    C     0.12800   0.45820   0.78900   0.01267  Uiso   1.00
C34    C     0.28070   0.09580   0.17790   0.01267  Uiso   1.00
C35    C     0.30630   0.14560   0.26030   0.01267  Uiso   1.00
C36    C     0.33080   0.04180   0.16980   0.01267  Uiso   1.00
Cl1    Cl    0.44492   0.24212   0.01740   0.01267  Uiso   1.00
Cl2    Cl    0.72472   0.42752   0.48260   0.01267  Uiso   1.00
Cl3    Cl    0.77528   0.25788   0.70280   0.01267  Uiso   1.00
Cl4    Cl    0.05508   0.07248   0.79720   0.01267  Uiso   1.00
Cl5    Cl    0.20280   0.77528   0.75788   0.01267  Uiso   1.00
Cl6    Cl    0.29720   0.05508   0.57248   0.01267  Uiso   1.00
Cl7    Cl    0.51740   0.44492   0.74212   0.01267  Uiso   1.00
Cl8    Cl    0.98260   0.72472   0.92752   0.01267  Uiso   1.00
Cl9    Cl    0.42752   0.98260   0.22472   0.01267  Uiso   1.00
Cl10   Cl    0.24212   0.51740   0.94492   0.01267  Uiso   1.00
Cl11   Cl    0.07248   0.29720   0.55508   0.01267  Uiso   1.00
Cl12   Cl    0.25788   0.20280   0.27528   0.01267  Uiso   1.00
O1     O     0.18350   0.18810   0.78520   0.01267  Uiso   1.00
O2     O     0.35190   0.27040   0.87970   0.01267  Uiso   1.00
O3     O     0.90290   0.39830   0.71480   0.01267  Uiso   1.00
O4     O     0.89070   0.47220   0.62030   0.01267  Uiso   1.00
O5     O     0.59710   0.31190   0.49540   0.01267  Uiso   1.00
O6     O     0.60930   0.22960   0.58150   0.01267  Uiso   1.00
O7     O     0.31650   0.10170   0.00460   0.01267  Uiso   1.00
O8     O     0.14810   0.02780   0.91850   0.01267  Uiso   1.00
O9     O     0.99540   0.59710   0.81190   0.01267  Uiso   1.00
O10    O     0.08150   0.60930   0.72960   0.01267  Uiso   1.00
O11    O     0.50460   0.31650   0.60170   0.01267  Uiso   1.00
O12    O     0.41850   0.14810   0.52780   0.01267  Uiso   1.00
O13    O     0.28520   0.18350   0.68810   0.01267  Uiso   1.00
O14    O     0.37970   0.35190   0.77040   0.01267  Uiso   1.00
O15    O     0.21480   0.90290   0.89830   0.01267  Uiso   1.00
O16    O     0.12030   0.89070   0.97220   0.01267  Uiso   1.00
O17    O     0.39830   0.21480   0.40290   0.01267  Uiso   1.00
O18    O     0.47220   0.12030   0.39070   0.01267  Uiso   1.00
O19    O     0.18810   0.28520   0.68350   0.01267  Uiso   1.00
O20    O     0.27040   0.37970   0.85190   0.01267  Uiso   1.00
O21    O     0.10170   0.50460   0.81650   0.01267  Uiso   1.00
O22    O     0.02780   0.41850   0.64810   0.01267  Uiso   1.00
O23    O     0.31190   0.99540   0.09710   0.01267  Uiso   1.00
O24    O     0.22960   0.08150   0.10930   0.01267  Uiso   1.00
Mn5    Mn    0.00000   0.50000   0.21768   0.01267  Uiso   1.00
Mn6    Mn    0.78232   0.78232   0.28232   0.01267  Uiso   1.00
Mn7    Mn    0.50000   0.71768   0.50000   0.01267  Uiso   1.00
Mn8    Mn    0.71768   0.00000   1.00000   0.01267  Uiso   1.00
C37    C     0.91790   0.32210   0.10280   0.01267  Uiso   1.00
C38    C     0.88530   0.23970   0.04600   0.01267  Uiso   1.00
C39    C     0.87200   0.33020   0.16100   0.01267  Uiso   1.00
C40    C     0.71930   0.81510   0.39720   0.01267  Uiso   1.00
C41    C     0.69370   0.83930   0.45400   0.01267  Uiso   1.00
C42    C     0.66920   0.71100   0.33900   0.01267  Uiso   1.00
C43    C     0.58210   0.68490   0.40420   0.01267  Uiso   1.00
C44    C     0.61470   0.66070   0.35440   0.01267  Uiso   1.00
C45    C     0.62800   0.78900   0.45820   0.01267  Uiso   1.00
C46    C     0.78070   0.17790   0.09580   0.01267  Uiso   1.00
C47    C     0.80630   0.26030   0.14560   0.01267  Uiso   1.00
C48    C     0.83080   0.16980   0.04180   0.01267  Uiso   1.00
C49    C     0.81510   0.89720   0.21930   0.01267  Uiso   1.00
C50    C     0.83930   0.95400   0.19370   0.01267  Uiso   1.00
C51    C     0.71100   0.83900   0.16920   0.01267  Uiso   1.00
C52    C     0.32210   0.60280   0.41790   0.01267  Uiso   1.00
C53    C     0.23970   0.54600   0.38530   0.01267  Uiso   1.00
C54    C     0.33020   0.66100   0.37200   0.01267  Uiso   1.00
C55    C     0.17790   0.59580   0.28070   0.01267  Uiso   1.00
C56    C     0.26030   0.64560   0.30630   0.01267  Uiso   1.00
C57    C     0.16980   0.54180   0.33080   0.01267  Uiso   1.00
C58    C     0.68490   0.90420   0.08210   0.01267  Uiso   1.00
C59    C     0.66070   0.85440   0.11470   0.01267  Uiso   1.00
C60    C     0.78900   0.95820   0.12800   0.01267  Uiso   1.00
C61    C     0.59580   0.78070   0.67790   0.01267  Uiso   1.00
C62    C     0.64560   0.80630   0.76030   0.01267  Uiso   1.00
C63    C     0.54180   0.83080   0.66980   0.01267  Uiso   1.00
C64    C     0.90420   0.58210   0.18490   0.01267  Uiso   1.00
C65    C     0.85440   0.61470   0.16070   0.01267  Uiso   1.00
C66    C     0.95820   0.62800   0.28900   0.01267  Uiso   1.00
C67    C     0.89720   0.71930   0.31510   0.01267  Uiso   1.00
C68    C     0.95400   0.69370   0.33930   0.01267  Uiso   1.00
C69    C     0.83900   0.66920   0.21100   0.01267  Uiso   1.00
C70    C     0.60280   0.91790   0.82210   0.01267  Uiso   1.00
C71    C     0.54600   0.88530   0.73970   0.01267  Uiso   1.00
C72    C     0.66100   0.87200   0.83020   0.01267  Uiso   1.00
Cl13   Cl    0.92752   0.22472   0.98260   0.01267  Uiso   1.00
Cl14   Cl    0.74212   0.94492   0.51740   0.01267  Uiso   1.00
Cl15   Cl    0.57248   0.55508   0.29720   0.01267  Uiso   1.00
Cl16   Cl    0.75788   0.27528   0.20280   0.01267  Uiso   1.00
Cl17   Cl    0.94492   0.01740   0.24212   0.01267  Uiso   1.00
Cl18   Cl    0.22472   0.48260   0.42752   0.01267  Uiso   1.00
Cl19   Cl    0.27528   0.70280   0.25788   0.01267  Uiso   1.00
Cl20   Cl    0.55508   0.79720   0.07248   0.01267  Uiso   1.00
Cl21   Cl    0.70280   0.75788   0.77528   0.01267  Uiso   1.00
Cl22   Cl    0.79720   0.57248   0.05508   0.01267  Uiso   1.00
Cl23   Cl    0.01740   0.74212   0.44492   0.01267  Uiso   1.00
Cl24   Cl    0.48260   0.92752   0.72472   0.01267  Uiso   1.00
O25    O     0.89830   0.40290   0.21480   0.01267  Uiso   1.00
O26    O     0.97220   0.39070   0.12030   0.01267  Uiso   1.00
O27    O     0.68810   0.68350   0.28520   0.01267  Uiso   1.00
O28    O     0.77040   0.85190   0.37970   0.01267  Uiso   1.00
O29    O     0.60170   0.81650   0.50460   0.01267  Uiso   1.00
O30    O     0.52780   0.64810   0.41850   0.01267  Uiso   1.00
O31    O     0.81190   0.09710   0.99540   0.01267  Uiso   1.00
O32    O     0.72960   0.10930   0.08150   0.01267  Uiso   1.00
O33    O     0.68350   0.78520   0.18810   0.01267  Uiso   1.00
O34    O     0.85190   0.87970   0.27040   0.01267  Uiso   1.00
O35    O     0.40290   0.71480   0.39830   0.01267  Uiso   1.00
O36    O     0.39070   0.62030   0.47220   0.01267  Uiso   1.00
O37    O     0.09710   0.49540   0.31190   0.01267  Uiso   1.00
O38    O     0.10930   0.58150   0.22960   0.01267  Uiso   1.00
O39    O     0.81650   0.00460   0.10170   0.01267  Uiso   1.00
O40    O     0.64810   0.91850   0.02780   0.01267  Uiso   1.00
O41    O     0.49540   0.81190   0.59710   0.01267  Uiso   1.00
O42    O     0.58150   0.72960   0.60930   0.01267  Uiso   1.00
O43    O     0.00460   0.60170   0.31650   0.01267  Uiso   1.00
O44    O     0.91850   0.52780   0.14810   0.01267  Uiso   1.00
O45    O     0.78520   0.68810   0.18350   0.01267  Uiso   1.00
O46    O     0.87970   0.77040   0.35190   0.01267  Uiso   1.00
O47    O     0.71480   0.89830   0.90290   0.01267  Uiso   1.00
O48    O     0.62030   0.97220   0.89070   0.01267  Uiso   1.00
