data_IMIDZB08_clean
_audit_creation_date              2014-07-02
_audit_creation_method            'Materials Studio'
_symmetry_space_group_name_H-M    'P1'
_symmetry_Int_Tables_number       1
_symmetry_cell_setting            triclinic
loop_
_symmetry_equiv_pos_as_xyz
  x,y,z
_cell_length_a                    12.4570
_cell_length_b                    17.7401
_cell_length_c                    17.7401
_cell_angle_alpha                 82.9192
_cell_angle_beta                  69.4457
_cell_angle_gamma                 69.4455
loop_
_atom_site_label
_atom_site_type_symbol
_atom_site_fract_x
_atom_site_fract_y
_atom_site_fract_z
_atom_site_U_iso_or_equiv
_atom_site_adp_type
_atom_site_occupancy
Zn1    Zn    0.96370   0.94816   0.24441   0.01267  Uiso   1.00
Zn2    Zn    0.95520   0.25070   0.04888   0.01267  Uiso   1.00
Zn3    Zn    0.15627   0.05184   0.75559   0.01267  Uiso   1.00
Zn4    Zn    0.25478   0.74930   0.95112   0.01267  Uiso   1.00
Zn5    Zn    0.95811   0.25559   0.44816   0.01267  Uiso   1.00
Zn6    Zn    0.75408   0.45112   0.75070   0.01267  Uiso   1.00
Zn7    Zn    0.66186   0.74441   0.55184   0.01267  Uiso   1.00
Zn8    Zn    0.95590   0.54888   0.24930   0.01267  Uiso   1.00
Zn9    Zn    0.46370   0.24441   0.94816   0.01267  Uiso   1.00
Zn10   Zn    0.45520   0.04888   0.25070   0.01267  Uiso   1.00
Zn11   Zn    0.65627   0.75559   0.05184   0.01267  Uiso   1.00
Zn12   Zn    0.75478   0.95112   0.74930   0.01267  Uiso   1.00
Zn13   Zn    0.45811   0.44816   0.25559   0.01267  Uiso   1.00
Zn14   Zn    0.25408   0.75070   0.45112   0.01267  Uiso   1.00
Zn15   Zn    0.16186   0.55184   0.74441   0.01267  Uiso   1.00
Zn16   Zn    0.45590   0.24930   0.54888   0.01267  Uiso   1.00
H1     H     0.12370   0.79550   0.31750   0.01267  Uiso   1.00
H2     H     0.99970   0.01990   0.38770   0.01267  Uiso   1.00
H3     H     0.11830   0.93950   0.47030   0.01267  Uiso   1.00
H4     H     0.15170   0.88590   0.07770   0.01267  Uiso   1.00
H5     H     0.00850   0.72130   0.08030   0.01267  Uiso   1.00
H6     H     0.89970   0.79650   0.20610   0.01267  Uiso   1.00
H7     H     0.89000   0.09390   0.13310   0.01267  Uiso   1.00
H8     H     0.14580   0.04910   0.22510   0.01267  Uiso   1.00
H9     H     0.13100   0.17570   0.15190   0.01267  Uiso   1.00
H10    H     0.72910   0.94260   0.21760   0.01267  Uiso   1.00
H11    H     0.74110   0.06080   0.38360   0.01267  Uiso   1.00
H12    H     0.53220   0.10260   0.38620   0.01267  Uiso   1.00
H13    H     0.23670   0.20450   0.68250   0.01267  Uiso   1.00
H14    H     0.40730   0.98010   0.61230   0.01267  Uiso   1.00
H15    H     0.52810   0.06050   0.52970   0.01267  Uiso   1.00
H16    H     0.11530   0.11410   0.92230   0.01267  Uiso   1.00
H17    H     0.81010   0.27870   0.91970   0.01267  Uiso   1.00
H18    H     0.90230   0.20350   0.79390   0.01267  Uiso   1.00
H19    H     0.11700   0.90610   0.86690   0.01267  Uiso   1.00
H20    H     0.42000   0.95090   0.77490   0.01267  Uiso   1.00
H21    H     0.45860   0.82430   0.84810   0.01267  Uiso   1.00
H22    H     0.88930   0.05740   0.78240   0.01267  Uiso   1.00
H23    H     0.18550   0.93920   0.61640   0.01267  Uiso   1.00
H24    H     0.02100   0.89740   0.61380   0.01267  Uiso   1.00
H25    H     0.19120   0.18250   0.29550   0.01267  Uiso   1.00
H26    H     0.13740   0.11230   0.51990   0.01267  Uiso   1.00
H27    H     0.33860   0.02970   0.43950   0.01267  Uiso   1.00
H28    H     0.97940   0.42230   0.38590   0.01267  Uiso   1.00
H29    H     0.83880   0.41970   0.22130   0.01267  Uiso   1.00
H30    H     0.85580   0.29390   0.29650   0.01267  Uiso   1.00
H31    H     0.77310   0.36690   0.59390   0.01267  Uiso   1.00
H32    H     0.12090   0.27490   0.54910   0.01267  Uiso   1.00
H33    H     0.03290   0.34810   0.67570   0.01267  Uiso   1.00
H34    H     0.69670   0.28240   0.44260   0.01267  Uiso   1.00
H35    H     0.87470   0.11640   0.56080   0.01267  Uiso   1.00
H36    H     0.66840   0.11380   0.60260   0.01267  Uiso   1.00
H37    H     0.66920   0.81750   0.70450   0.01267  Uiso   1.00
H38    H     0.76960   0.88770   0.48010   0.01267  Uiso   1.00
H39    H     0.80780   0.97030   0.56050   0.01267  Uiso   1.00
H40    H     0.78760   0.57770   0.61410   0.01267  Uiso   1.00
H41    H     0.47980   0.58030   0.77870   0.01267  Uiso   1.00
H42    H     0.44620   0.70610   0.70350   0.01267  Uiso   1.00
H43    H     0.73390   0.63310   0.40610   0.01267  Uiso   1.00
H44    H     0.94490   0.72510   0.45090   0.01267  Uiso   1.00
H45    H     0.05670   0.65190   0.32430   0.01267  Uiso   1.00
H46    H     0.42170   0.71760   0.55740   0.01267  Uiso   1.00
H47    H     0.55190   0.88360   0.43920   0.01267  Uiso   1.00
H48    H     0.38480   0.88620   0.39740   0.01267  Uiso   1.00
H49    H     0.62370   0.31750   0.79550   0.01267  Uiso   1.00
H50    H     0.49970   0.38770   0.01990   0.01267  Uiso   1.00
H51    H     0.61830   0.47030   0.93950   0.01267  Uiso   1.00
H52    H     0.65170   0.07770   0.88590   0.01267  Uiso   1.00
H53    H     0.50850   0.08030   0.72130   0.01267  Uiso   1.00
H54    H     0.39970   0.20610   0.79650   0.01267  Uiso   1.00
H55    H     0.39000   0.13310   0.09390   0.01267  Uiso   1.00
H56    H     0.64580   0.22510   0.04910   0.01267  Uiso   1.00
H57    H     0.63100   0.15190   0.17570   0.01267  Uiso   1.00
H58    H     0.22910   0.21760   0.94260   0.01267  Uiso   1.00
H59    H     0.24110   0.38360   0.06080   0.01267  Uiso   1.00
H60    H     0.03220   0.38620   0.10260   0.01267  Uiso   1.00
H61    H     0.73670   0.68250   0.20450   0.01267  Uiso   1.00
H62    H     0.90730   0.61230   0.98010   0.01267  Uiso   1.00
H63    H     0.02810   0.52970   0.06050   0.01267  Uiso   1.00
H64    H     0.61530   0.92230   0.11410   0.01267  Uiso   1.00
H65    H     0.31010   0.91970   0.27870   0.01267  Uiso   1.00
H66    H     0.40230   0.79390   0.20350   0.01267  Uiso   1.00
H67    H     0.61700   0.86690   0.90610   0.01267  Uiso   1.00
H68    H     0.92000   0.77490   0.95090   0.01267  Uiso   1.00
H69    H     0.95860   0.84810   0.82430   0.01267  Uiso   1.00
H70    H     0.38930   0.78240   0.05740   0.01267  Uiso   1.00
H71    H     0.68550   0.61640   0.93920   0.01267  Uiso   1.00
H72    H     0.52100   0.61380   0.89740   0.01267  Uiso   1.00
H73    H     0.69120   0.29550   0.18250   0.01267  Uiso   1.00
H74    H     0.63740   0.51990   0.11230   0.01267  Uiso   1.00
H75    H     0.83860   0.43950   0.02970   0.01267  Uiso   1.00
H76    H     0.47940   0.38590   0.42230   0.01267  Uiso   1.00
H77    H     0.33880   0.22130   0.41970   0.01267  Uiso   1.00
H78    H     0.35580   0.29650   0.29390   0.01267  Uiso   1.00
H79    H     0.27310   0.59390   0.36690   0.01267  Uiso   1.00
H80    H     0.62090   0.54910   0.27490   0.01267  Uiso   1.00
H81    H     0.53290   0.67570   0.34810   0.01267  Uiso   1.00
H82    H     0.19670   0.44260   0.28240   0.01267  Uiso   1.00
H83    H     0.37470   0.56080   0.11640   0.01267  Uiso   1.00
H84    H     0.16840   0.60260   0.11380   0.01267  Uiso   1.00
H85    H     0.16920   0.70450   0.81750   0.01267  Uiso   1.00
H86    H     0.26960   0.48010   0.88770   0.01267  Uiso   1.00
H87    H     0.30780   0.56050   0.97030   0.01267  Uiso   1.00
H88    H     0.28760   0.61410   0.57770   0.01267  Uiso   1.00
H89    H     0.97980   0.77870   0.58030   0.01267  Uiso   1.00
H90    H     0.94620   0.70350   0.70610   0.01267  Uiso   1.00
H91    H     0.23390   0.40610   0.63310   0.01267  Uiso   1.00
H92    H     0.44490   0.45090   0.72510   0.01267  Uiso   1.00
H93    H     0.55670   0.32430   0.65190   0.01267  Uiso   1.00
H94    H     0.92170   0.55740   0.71760   0.01267  Uiso   1.00
H95    H     0.05190   0.43920   0.88360   0.01267  Uiso   1.00
H96    H     0.88480   0.39740   0.88620   0.01267  Uiso   1.00
C1     C     0.10743   0.84161   0.34533   0.01267  Uiso   1.00
C2     C     0.03933   0.96459   0.38335   0.01267  Uiso   1.00
C3     C     0.10474   0.92007   0.42925   0.01267  Uiso   1.00
C4     C     0.10277   0.85354   0.09452   0.01267  Uiso   1.00
C5     C     0.02528   0.76337   0.09507   0.01267  Uiso   1.00
C6     C     0.96479   0.80538   0.16464   0.01267  Uiso   1.00
C7     C     0.95346   0.09822   0.14646   0.01267  Uiso   1.00
C8     C     0.09190   0.07340   0.19700   0.01267  Uiso   1.00
C9     C     0.08394   0.14363   0.15629   0.01267  Uiso   1.00
C10    C     0.70581   0.97739   0.25999   0.01267  Uiso   1.00
C11    C     0.71372   0.04148   0.35008   0.01267  Uiso   1.00
C12    C     0.59774   0.06444   0.35148   0.01267  Uiso   1.00
C13    C     0.29437   0.15839   0.65467   0.01267  Uiso   1.00
C14    C     0.38727   0.03541   0.61665   0.01267  Uiso   1.00
C15    C     0.45406   0.07993   0.57075   0.01267  Uiso   1.00
C16    C     0.05083   0.14646   0.90548   0.01267  Uiso   1.00
C17    C     0.88372   0.23663   0.90493   0.01267  Uiso   1.00
C18    C     0.93481   0.19462   0.83536   0.01267  Uiso   1.00
C19    C     0.19814   0.90178   0.85354   0.01267  Uiso   1.00
C20    C     0.36230   0.92660   0.80300   0.01267  Uiso   1.00
C21    C     0.38386   0.85637   0.84371   0.01267  Uiso   1.00
C22    C     0.94319   0.02261   0.74001   0.01267  Uiso   1.00
C23    C     0.10528   0.95852   0.64992   0.01267  Uiso   1.00
C24    C     0.01366   0.93556   0.64852   0.01267  Uiso   1.00
C25    C     0.20276   0.15467   0.34161   0.01267  Uiso   1.00
C26    C     0.17268   0.11665   0.46459   0.01267  Uiso   1.00
C27    C     0.28399   0.07075   0.42007   0.01267  Uiso   1.00
C28    C     0.94729   0.40548   0.35354   0.01267  Uiso   1.00
C29    C     0.87035   0.40493   0.26337   0.01267  Uiso   1.00
C30    C     0.87943   0.33536   0.30538   0.01267  Uiso   1.00
C31    C     0.84992   0.35354   0.59822   0.01267  Uiso   1.00
C32    C     0.03890   0.30300   0.57340   0.01267  Uiso   1.00
C33    C     0.99023   0.34371   0.64363   0.01267  Uiso   1.00
C34    C     0.71580   0.24001   0.47739   0.01267  Uiso   1.00
C35    C     0.81380   0.14992   0.54148   0.01267  Uiso   1.00
C36    C     0.69922   0.14852   0.56444   0.01267  Uiso   1.00
C37    C     0.69904   0.84533   0.65839   0.01267  Uiso   1.00
C38    C     0.75392   0.88335   0.53541   0.01267  Uiso   1.00
C39    C     0.77481   0.92925   0.57993   0.01267  Uiso   1.00
C40    C     0.70631   0.59452   0.64646   0.01267  Uiso   1.00
C41    C     0.53865   0.59507   0.73663   0.01267  Uiso   1.00
C42    C     0.52017   0.66464   0.69462   0.01267  Uiso   1.00
C43    C     0.80168   0.64646   0.40178   0.01267  Uiso   1.00
C44    C     0.91530   0.69700   0.42660   0.01267  Uiso   1.00
C45    C     0.97757   0.65629   0.35637   0.01267  Uiso   1.00
C46    C     0.43320   0.75999   0.52261   0.01267  Uiso   1.00
C47    C     0.50520   0.85008   0.45852   0.01267  Uiso   1.00
C48    C     0.41218   0.85148   0.43556   0.01267  Uiso   1.00
C49    C     0.60743   0.34533   0.84161   0.01267  Uiso   1.00
C50    C     0.53933   0.38335   0.96459   0.01267  Uiso   1.00
C51    C     0.60474   0.42925   0.92007   0.01267  Uiso   1.00
C52    C     0.60277   0.09452   0.85354   0.01267  Uiso   1.00
C53    C     0.52528   0.09507   0.76337   0.01267  Uiso   1.00
C54    C     0.46479   0.16464   0.80538   0.01267  Uiso   1.00
C55    C     0.45346   0.14646   0.09822   0.01267  Uiso   1.00
C56    C     0.59190   0.19700   0.07340   0.01267  Uiso   1.00
C57    C     0.58394   0.15629   0.14363   0.01267  Uiso   1.00
C58    C     0.20581   0.25999   0.97739   0.01267  Uiso   1.00
C59    C     0.21372   0.35008   0.04148   0.01267  Uiso   1.00
C60    C     0.09774   0.35148   0.06444   0.01267  Uiso   1.00
C61    C     0.79437   0.65467   0.15839   0.01267  Uiso   1.00
C62    C     0.88727   0.61665   0.03541   0.01267  Uiso   1.00
C63    C     0.95406   0.57075   0.07993   0.01267  Uiso   1.00
C64    C     0.55083   0.90548   0.14646   0.01267  Uiso   1.00
C65    C     0.38372   0.90493   0.23663   0.01267  Uiso   1.00
C66    C     0.43481   0.83536   0.19462   0.01267  Uiso   1.00
C67    C     0.69814   0.85354   0.90178   0.01267  Uiso   1.00
C68    C     0.86230   0.80300   0.92660   0.01267  Uiso   1.00
C69    C     0.88386   0.84371   0.85637   0.01267  Uiso   1.00
C70    C     0.44319   0.74001   0.02261   0.01267  Uiso   1.00
C71    C     0.60528   0.64992   0.95852   0.01267  Uiso   1.00
C72    C     0.51366   0.64852   0.93556   0.01267  Uiso   1.00
C73    C     0.70276   0.34161   0.15467   0.01267  Uiso   1.00
C74    C     0.67268   0.46459   0.11665   0.01267  Uiso   1.00
C75    C     0.78399   0.42007   0.07075   0.01267  Uiso   1.00
C76    C     0.44729   0.35354   0.40548   0.01267  Uiso   1.00
C77    C     0.37035   0.26337   0.40493   0.01267  Uiso   1.00
C78    C     0.37943   0.30538   0.33536   0.01267  Uiso   1.00
C79    C     0.34992   0.59822   0.35354   0.01267  Uiso   1.00
C80    C     0.53890   0.57340   0.30300   0.01267  Uiso   1.00
C81    C     0.49023   0.64363   0.34371   0.01267  Uiso   1.00
C82    C     0.21580   0.47739   0.24001   0.01267  Uiso   1.00
C83    C     0.31380   0.54148   0.14992   0.01267  Uiso   1.00
C84    C     0.19922   0.56444   0.14852   0.01267  Uiso   1.00
C85    C     0.19904   0.65839   0.84533   0.01267  Uiso   1.00
C86    C     0.25392   0.53541   0.88335   0.01267  Uiso   1.00
C87    C     0.27481   0.57993   0.92925   0.01267  Uiso   1.00
C88    C     0.20631   0.64646   0.59452   0.01267  Uiso   1.00
C89    C     0.03865   0.73663   0.59507   0.01267  Uiso   1.00
C90    C     0.02017   0.69462   0.66464   0.01267  Uiso   1.00
C91    C     0.30168   0.40178   0.64646   0.01267  Uiso   1.00
C92    C     0.41530   0.42660   0.69700   0.01267  Uiso   1.00
C93    C     0.47757   0.35637   0.65629   0.01267  Uiso   1.00
C94    C     0.93320   0.52261   0.75999   0.01267  Uiso   1.00
C95    C     0.00520   0.45852   0.85008   0.01267  Uiso   1.00
C96    C     0.91218   0.43556   0.85148   0.01267  Uiso   1.00
N1     N     0.01414   0.86284   0.16468   0.01267  Uiso   1.00
N2     N     0.78392   0.98524   0.29112   0.01267  Uiso   1.00
N3     N     0.00888   0.04392   0.19032   0.01267  Uiso   1.00
N4     N     0.04052   0.91521   0.32909   0.01267  Uiso   1.00
N5     N     0.99481   0.15952   0.12286   0.01267  Uiso   1.00
N6     N     0.14816   0.84129   0.40561   0.01267  Uiso   1.00
N7     N     0.11529   0.79358   0.05024   0.01267  Uiso   1.00
N8     N     0.59150   0.02345   0.29455   0.01267  Uiso   1.00
N9     N     0.04166   0.13716   0.83532   0.01267  Uiso   1.00
N10    N     0.06028   0.01476   0.70888   0.01267  Uiso   1.00
N11    N     0.24312   0.95608   0.80968   0.01267  Uiso   1.00
N12    N     0.28482   0.08479   0.67091   0.01267  Uiso   1.00
N13    N     0.27719   0.84048   0.87714   0.01267  Uiso   1.00
N14    N     0.39506   0.15871   0.59439   0.01267  Uiso   1.00
N15    N     0.95911   0.20642   0.94976   0.01267  Uiso   1.00
N16    N     0.90950   0.97655   0.70545   0.01267  Uiso   1.00
N17    N     0.92882   0.33532   0.36284   0.01267  Uiso   1.00
N18    N     0.82504   0.20888   0.48524   0.01267  Uiso   1.00
N19    N     0.94920   0.30968   0.54392   0.01267  Uiso   1.00
N20    N     0.11961   0.17091   0.41521   0.01267  Uiso   1.00
N21    N     0.86767   0.37714   0.65952   0.01267  Uiso   1.00
N22    N     0.30377   0.09439   0.34129   0.01267  Uiso   1.00
N23    N     0.91553   0.44976   0.29358   0.01267  Uiso   1.00
N24    N     0.63605   0.20545   0.52345   0.01267  Uiso   1.00
N25    N     0.62698   0.66468   0.63716   0.01267  Uiso   1.00
N26    N     0.51916   0.79112   0.51476   0.01267  Uiso   1.00
N27    N     0.80280   0.69032   0.45608   0.01267  Uiso   1.00
N28    N     0.70573   0.82909   0.58479   0.01267  Uiso   1.00
N29    N     0.90433   0.62286   0.34048   0.01267  Uiso   1.00
N30    N     0.73945   0.90561   0.65871   0.01267  Uiso   1.00
N31    N     0.65887   0.55024   0.70642   0.01267  Uiso   1.00
N32    N     0.36495   0.79455   0.47655   0.01267  Uiso   1.00
N33    N     0.51414   0.16468   0.86284   0.01267  Uiso   1.00
N34    N     0.28392   0.29112   0.98524   0.01267  Uiso   1.00
N35    N     0.50888   0.19032   0.04392   0.01267  Uiso   1.00
N36    N     0.54052   0.32909   0.91521   0.01267  Uiso   1.00
N37    N     0.49481   0.12286   0.15952   0.01267  Uiso   1.00
N38    N     0.64816   0.40561   0.84129   0.01267  Uiso   1.00
N39    N     0.61529   0.05024   0.79358   0.01267  Uiso   1.00
N40    N     0.09150   0.29455   0.02345   0.01267  Uiso   1.00
N41    N     0.54166   0.83532   0.13716   0.01267  Uiso   1.00
N42    N     0.56028   0.70888   0.01476   0.01267  Uiso   1.00
N43    N     0.74312   0.80968   0.95608   0.01267  Uiso   1.00
N44    N     0.78482   0.67091   0.08479   0.01267  Uiso   1.00
N45    N     0.77719   0.87714   0.84048   0.01267  Uiso   1.00
N46    N     0.89506   0.59439   0.15871   0.01267  Uiso   1.00
N47    N     0.45911   0.94976   0.20642   0.01267  Uiso   1.00
N48    N     0.40950   0.70545   0.97655   0.01267  Uiso   1.00
N49    N     0.42882   0.36284   0.33532   0.01267  Uiso   1.00
N50    N     0.32504   0.48524   0.20888   0.01267  Uiso   1.00
N51    N     0.44920   0.54392   0.30968   0.01267  Uiso   1.00
N52    N     0.61961   0.41521   0.17091   0.01267  Uiso   1.00
N53    N     0.36767   0.65952   0.37714   0.01267  Uiso   1.00
N54    N     0.80377   0.34129   0.09439   0.01267  Uiso   1.00
N55    N     0.41553   0.29358   0.44976   0.01267  Uiso   1.00
N56    N     0.13605   0.52345   0.20545   0.01267  Uiso   1.00
N57    N     0.12698   0.63716   0.66468   0.01267  Uiso   1.00
N58    N     0.01916   0.51476   0.79112   0.01267  Uiso   1.00
N59    N     0.30280   0.45608   0.69032   0.01267  Uiso   1.00
N60    N     0.20573   0.58479   0.82909   0.01267  Uiso   1.00
N61    N     0.40433   0.34048   0.62286   0.01267  Uiso   1.00
N62    N     0.23945   0.65871   0.90561   0.01267  Uiso   1.00
N63    N     0.15887   0.70642   0.55024   0.01267  Uiso   1.00
N64    N     0.86495   0.47655   0.79455   0.01267  Uiso   1.00
