data_ALICII_clean
_audit_creation_date              2014-07-02
_audit_creation_method            'Materials Studio'
_symmetry_space_group_name_H-M    'P1'
_symmetry_Int_Tables_number       1
_symmetry_cell_setting            triclinic
loop_
_symmetry_equiv_pos_as_xyz
  x,y,z
_cell_length_a                    3.3462
_cell_length_b                    14.7599
_cell_length_c                    14.7599
_cell_angle_alpha                 89.2638
_cell_angle_beta                  83.4915
_cell_angle_gamma                 83.4913
loop_
_atom_site_label
_atom_site_type_symbol
_atom_site_fract_x
_atom_site_fract_y
_atom_site_fract_z
_atom_site_U_iso_or_equiv
_atom_site_adp_type
_atom_site_occupancy
Cu1    Cu    0.50982   0.11518   0.61518   0.01267  Uiso   1.00
Cu2    Cu    0.24018   0.88482   0.38482   0.01267  Uiso   1.00
Cu3    Cu    0.87500   0.88482   0.61518   0.01267  Uiso   1.00
Cu4    Cu    0.37500   0.11518   0.38482   0.01267  Uiso   1.00
Cu5    Cu    0.50000   0.00000   0.00000   0.01267  Uiso   1.00
Cu6    Cu    0.25000   0.50000   0.50000   0.01267  Uiso   1.00
H1     H     0.35880   0.14300   0.83320   0.01267  Uiso   1.00
H2     H     0.33500   0.85700   0.16680   0.01267  Uiso   1.00
H3     H     0.94200   0.66680   0.64300   0.01267  Uiso   1.00
H4     H     0.25180   0.33320   0.35700   0.01267  Uiso   1.00
H5     H     0.39120   0.66680   0.35700   0.01267  Uiso   1.00
H6     H     0.41500   0.33320   0.64300   0.01267  Uiso   1.00
H7     H     0.80800   0.85700   0.83320   0.01267  Uiso   1.00
H8     H     0.49820   0.14300   0.16680   0.01267  Uiso   1.00
C1     C     0.46070   0.08290   0.81370   0.01267  Uiso   1.00
C2     C     0.35730   0.91710   0.18630   0.01267  Uiso   1.00
C3     C     0.02440   0.68630   0.58290   0.01267  Uiso   1.00
C4     C     0.29360   0.31370   0.41710   0.01267  Uiso   1.00
C5     C     0.28930   0.68630   0.41710   0.01267  Uiso   1.00
C6     C     0.39270   0.31370   0.58290   0.01267  Uiso   1.00
C7     C     0.72560   0.91710   0.81370   0.01267  Uiso   1.00
C8     C     0.45640   0.08290   0.18630   0.01267  Uiso   1.00
N1     N     0.56510   0.04090   0.72290   0.01267  Uiso   1.00
N2     N     0.32890   0.95910   0.27710   0.01267  Uiso   1.00
N3     N     0.03800   0.77710   0.54090   0.01267  Uiso   1.00
N4     N     0.35600   0.22290   0.45910   0.01267  Uiso   1.00
N5     N     0.18490   0.77710   0.45910   0.01267  Uiso   1.00
N6     N     0.42110   0.22290   0.54090   0.01267  Uiso   1.00
N7     N     0.71200   0.95910   0.72290   0.01267  Uiso   1.00
N8     N     0.39400   0.04090   0.27710   0.01267  Uiso   1.00
N9     N     0.56860   1.00000   0.86280   0.01267  Uiso   1.00
N10    N     0.43140   0.00000   0.13720   0.01267  Uiso   1.00
N11    N     0.18140   0.63720   0.50000   0.01267  Uiso   1.00
N12    N     0.31860   0.36280   0.50000   0.01267  Uiso   1.00
