data_HIQPEE_clean
_audit_creation_date              2015-10-16
_audit_creation_method            'Materials Studio'
_symmetry_space_group_name_H-M    'P1'
_symmetry_Int_Tables_number       1
_symmetry_cell_setting            triclinic
loop_
_symmetry_equiv_pos_as_xyz
  x,y,z
_cell_length_a                    7.3427
_cell_length_b                    8.8105
_cell_length_c                    8.8105
_cell_angle_alpha                 90.0000
_cell_angle_beta                  90.0000
_cell_angle_gamma                 90.0000
loop_
_atom_site_label
_atom_site_type_symbol
_atom_site_fract_x
_atom_site_fract_y
_atom_site_fract_z
_atom_site_U_iso_or_equiv
_atom_site_adp_type
_atom_site_occupancy
Co1    Co    0.00000   0.00000   0.00000   0.01267  Uiso   1.00
Co2    Co    0.50000   0.00000   0.00000   0.01267  Uiso   1.00
H1     H     0.04554   0.69867   0.74858   0.01267  Uiso   1.00
H2     H     0.64568   0.10193   0.34232   0.01267  Uiso   1.00
H3     H     0.54554   0.25142   0.30133   0.01267  Uiso   1.00
H4     H     0.64568   0.89807   0.65768   0.01267  Uiso   1.00
H5     H     0.47483   0.46241   0.81755   0.01267  Uiso   1.00
H6     H     0.85432   0.10193   0.65768   0.01267  Uiso   1.00
H7     H     0.52517   0.81755   0.53759   0.01267  Uiso   1.00
H8     H     0.02517   0.46241   0.18245   0.01267  Uiso   1.00
H9     H     0.95446   0.74858   0.30133   0.01267  Uiso   1.00
H10    H     0.47483   0.53759   0.18245   0.01267  Uiso   1.00
H11    H     0.54554   0.74858   0.69867   0.01267  Uiso   1.00
H12    H     0.04554   0.30133   0.25142   0.01267  Uiso   1.00
H13    H     0.35432   0.65768   0.10193   0.01267  Uiso   1.00
H14    H     0.45446   0.69867   0.25142   0.01267  Uiso   1.00
H15    H     0.97483   0.81755   0.46241   0.01267  Uiso   1.00
H16    H     0.35432   0.34232   0.89807   0.01267  Uiso   1.00
H17    H     0.85432   0.89807   0.34232   0.01267  Uiso   1.00
H18    H     0.14568   0.65768   0.89807   0.01267  Uiso   1.00
H19    H     0.52517   0.18245   0.46241   0.01267  Uiso   1.00
H20    H     0.95446   0.25142   0.69867   0.01267  Uiso   1.00
H21    H     0.02517   0.53759   0.81755   0.01267  Uiso   1.00
H22    H     0.45446   0.30133   0.74858   0.01267  Uiso   1.00
H23    H     0.14568   0.34232   0.10193   0.01267  Uiso   1.00
H24    H     0.97483   0.18245   0.53759   0.01267  Uiso   1.00
C1     C     0.75000   0.41260   0.00000   0.01267  Uiso   1.00
C2     C     0.03793   0.35756   0.15964   0.01267  Uiso   1.00
C3     C     0.96207   0.84036   0.35756   0.01267  Uiso   1.00
C4     C     0.10873   0.07832   0.69014   0.01267  Uiso   1.00
C5     C     0.75000   0.58740   0.00000   0.01267  Uiso   1.00
C6     C     0.10873   0.92168   0.30986   0.01267  Uiso   1.00
C7     C     0.39127   0.92168   0.69014   0.01267  Uiso   1.00
C8     C     0.39127   0.07832   0.30986   0.01267  Uiso   1.00
C9     C     0.60873   0.69014   0.07832   0.01267  Uiso   1.00
C10    C     0.60873   0.30986   0.92168   0.01267  Uiso   1.00
C11    C     0.53793   0.84036   0.64244   0.01267  Uiso   1.00
C12    C     0.96207   0.15964   0.64244   0.01267  Uiso   1.00
C13    C     0.25000   0.00000   0.58740   0.01267  Uiso   1.00
C14    C     0.46207   0.64244   0.15964   0.01267  Uiso   1.00
C15    C     0.89127   0.30986   0.07832   0.01267  Uiso   1.00
C16    C     0.89127   0.69014   0.92168   0.01267  Uiso   1.00
C17    C     0.03793   0.64244   0.84036   0.01267  Uiso   1.00
C18    C     0.25000   0.00000   0.41260   0.01267  Uiso   1.00
C19    C     0.46207   0.35756   0.84036   0.01267  Uiso   1.00
C20    C     0.53793   0.15964   0.35756   0.01267  Uiso   1.00
N1     N     0.15638   0.94810   0.16306   0.01267  Uiso   1.00
N2     N     0.15638   0.05190   0.83694   0.01267  Uiso   1.00
N3     N     0.34362   0.94810   0.83694   0.01267  Uiso   1.00
N4     N     0.65638   0.16306   0.94810   0.01267  Uiso   1.00
N5     N     0.65638   0.83694   0.05190   0.01267  Uiso   1.00
N6     N     0.84362   0.83694   0.94810   0.01267  Uiso   1.00
N7     N     0.84362   0.16306   0.05190   0.01267  Uiso   1.00
N8     N     0.34362   0.05190   0.16306   0.01267  Uiso   1.00
