data_GIWMOP_clean
_audit_creation_date              2014-07-02
_audit_creation_method            'Materials Studio'
_symmetry_space_group_name_H-M    'P1'
_symmetry_Int_Tables_number       1
_symmetry_cell_setting            triclinic
loop_
_symmetry_equiv_pos_as_xyz
  x,y,z
_cell_length_a                    9.9729
_cell_length_b                    9.9729
_cell_length_c                    12.3716
_cell_angle_alpha                 83.2058
_cell_angle_beta                  83.2058
_cell_angle_gamma                 84.4115
loop_
_atom_site_label
_atom_site_type_symbol
_atom_site_fract_x
_atom_site_fract_y
_atom_site_fract_z
_atom_site_U_iso_or_equiv
_atom_site_adp_type
_atom_site_occupancy
Cd1    Cd    0.75899   0.36303   0.05139   0.01267  Uiso   1.00
Cd2    Cd    0.63697   0.24101   0.44861   0.01267  Uiso   1.00
Cd3    Cd    0.24101   0.63697   0.94861   0.01267  Uiso   1.00
Cd4    Cd    0.36303   0.75899   0.55139   0.01267  Uiso   1.00
H1     H     0.68270   0.20610   0.84870   0.01267  Uiso   1.00
H2     H     0.64640   0.99580   0.80420   0.01267  Uiso   1.00
H3     H     0.65220   0.81260   0.93700   0.01267  Uiso   1.00
H4     H     0.69850   0.84450   0.11080   0.01267  Uiso   1.00
H5     H     0.76490   0.97430   0.32830   0.01267  Uiso   1.00
H6     H     0.71210   0.89330   0.25130   0.01267  Uiso   1.00
H7     H     0.79390   0.31730   0.65130   0.01267  Uiso   1.00
H8     H     0.00420   0.35360   0.69580   0.01267  Uiso   1.00
H9     H     0.18740   0.34780   0.56300   0.01267  Uiso   1.00
H10    H     0.15550   0.30150   0.38920   0.01267  Uiso   1.00
H11    H     0.02570   0.23510   0.17170   0.01267  Uiso   1.00
H12    H     0.10670   0.28790   0.24870   0.01267  Uiso   1.00
H13    H     0.31730   0.79390   0.15130   0.01267  Uiso   1.00
H14    H     0.35360   0.00420   0.19580   0.01267  Uiso   1.00
H15    H     0.34780   0.18740   0.06300   0.01267  Uiso   1.00
H16    H     0.30150   0.15550   0.88920   0.01267  Uiso   1.00
H17    H     0.23510   0.02570   0.67170   0.01267  Uiso   1.00
H18    H     0.28790   0.10670   0.74870   0.01267  Uiso   1.00
H19    H     0.20610   0.68270   0.34870   0.01267  Uiso   1.00
H20    H     0.99580   0.64640   0.30420   0.01267  Uiso   1.00
H21    H     0.81260   0.65220   0.43700   0.01267  Uiso   1.00
H22    H     0.84450   0.69850   0.61080   0.01267  Uiso   1.00
H23    H     0.97430   0.76490   0.82830   0.01267  Uiso   1.00
H24    H     0.89330   0.71210   0.75130   0.01267  Uiso   1.00
C1     C     0.68630   0.13210   0.90190   0.01267  Uiso   1.00
C2     C     0.66390   0.00650   0.87480   0.01267  Uiso   1.00
C3     C     0.66780   0.89800   0.95310   0.01267  Uiso   1.00
C4     C     0.69530   0.91710   0.05630   0.01267  Uiso   1.00
C5     C     0.71790   0.04450   0.07830   0.01267  Uiso   1.00
C6     C     0.75051   0.07091   0.18680   0.01267  Uiso   1.00
C7     C     0.42238   0.44278   0.12810   0.01267  Uiso   1.00
C8     C     0.07343   0.37323   0.92430   0.01267  Uiso   1.00
C9     C     0.86790   0.31370   0.59810   0.01267  Uiso   1.00
C10    C     0.99350   0.33610   0.62520   0.01267  Uiso   1.00
C11    C     0.10200   0.33220   0.54690   0.01267  Uiso   1.00
C12    C     0.08290   0.30470   0.44370   0.01267  Uiso   1.00
C13    C     0.95550   0.28210   0.42170   0.01267  Uiso   1.00
C14    C     0.92909   0.24949   0.31320   0.01267  Uiso   1.00
C15    C     0.55722   0.57762   0.37190   0.01267  Uiso   1.00
C16    C     0.62677   0.92657   0.57570   0.01267  Uiso   1.00
C17    C     0.31370   0.86790   0.09810   0.01267  Uiso   1.00
C18    C     0.33610   0.99350   0.12520   0.01267  Uiso   1.00
C19    C     0.33220   0.10200   0.04690   0.01267  Uiso   1.00
C20    C     0.30470   0.08290   0.94370   0.01267  Uiso   1.00
C21    C     0.28210   0.95550   0.92170   0.01267  Uiso   1.00
C22    C     0.24949   0.92909   0.81320   0.01267  Uiso   1.00
C23    C     0.57762   0.55722   0.87190   0.01267  Uiso   1.00
C24    C     0.92657   0.62677   0.07570   0.01267  Uiso   1.00
C25    C     0.13210   0.68630   0.40190   0.01267  Uiso   1.00
C26    C     0.00650   0.66390   0.37480   0.01267  Uiso   1.00
C27    C     0.89800   0.66780   0.45310   0.01267  Uiso   1.00
C28    C     0.91710   0.69530   0.55630   0.01267  Uiso   1.00
C29    C     0.04450   0.71790   0.57830   0.01267  Uiso   1.00
C30    C     0.07091   0.75051   0.68680   0.01267  Uiso   1.00
C31    C     0.44278   0.42238   0.62810   0.01267  Uiso   1.00
C32    C     0.37323   0.07343   0.42430   0.01267  Uiso   1.00
S1     S     0.26145   0.50095   0.14614   0.01267  Uiso   1.00
S2     S     0.19384   0.43756   0.83672   0.01267  Uiso   1.00
S3     S     0.49905   0.73855   0.35386   0.01267  Uiso   1.00
S4     S     0.56244   0.80616   0.66328   0.01267  Uiso   1.00
S5     S     0.73855   0.49905   0.85386   0.01267  Uiso   1.00
S6     S     0.80616   0.56244   0.16328   0.01267  Uiso   1.00
S7     S     0.50095   0.26145   0.64614   0.01267  Uiso   1.00
S8     S     0.43756   0.19384   0.33672   0.01267  Uiso   1.00
N1     N     0.71321   0.15101   0.00190   0.01267  Uiso   1.00
N2     N     0.79271   0.18679   0.19645   0.01267  Uiso   1.00
N3     N     0.74140   0.96740   0.26460   0.01267  Uiso   1.00
N4     N     0.53335   0.39995   0.11600   0.01267  Uiso   1.00
N5     N     0.98926   0.32526   0.98430   0.01267  Uiso   1.00
N6     N     0.84899   0.28679   0.49810   0.01267  Uiso   1.00
N7     N     0.81321   0.20729   0.30355   0.01267  Uiso   1.00
N8     N     0.03260   0.25860   0.23540   0.01267  Uiso   1.00
N9     N     0.60005   0.46665   0.38400   0.01267  Uiso   1.00
N10    N     0.67474   0.01074   0.51570   0.01267  Uiso   1.00
N11    N     0.28679   0.84899   0.99810   0.01267  Uiso   1.00
N12    N     0.20729   0.81321   0.80355   0.01267  Uiso   1.00
N13    N     0.25860   0.03260   0.73540   0.01267  Uiso   1.00
N14    N     0.46665   0.60005   0.88400   0.01267  Uiso   1.00
N15    N     0.01074   0.67474   0.01570   0.01267  Uiso   1.00
N16    N     0.15101   0.71321   0.50190   0.01267  Uiso   1.00
N17    N     0.18679   0.79271   0.69645   0.01267  Uiso   1.00
N18    N     0.96740   0.74140   0.76460   0.01267  Uiso   1.00
N19    N     0.39995   0.53335   0.61600   0.01267  Uiso   1.00
N20    N     0.32526   0.98926   0.48430   0.01267  Uiso   1.00
