data_ic501253c_si_004_clean
_audit_creation_date              2015-08-19
_audit_creation_method            'Materials Studio'
_symmetry_space_group_name_H-M    'P1'
_symmetry_Int_Tables_number       1
_symmetry_cell_setting            triclinic
loop_
_symmetry_equiv_pos_as_xyz
  x,y,z
_cell_length_a                    9.5948
_cell_length_b                    11.2270
_cell_length_c                    14.7520
_cell_angle_alpha                 82.3900
_cell_angle_beta                  83.8080
_cell_angle_gamma                 83.4010
loop_
_atom_site_label
_atom_site_type_symbol
_atom_site_fract_x
_atom_site_fract_y
_atom_site_fract_z
_atom_site_U_iso_or_equiv
_atom_site_adp_type
_atom_site_occupancy
Eu1    Eu    0.93602   0.59443   0.66126   0.01267  Uiso   1.00
Eu2    Eu    0.06398   0.40557   0.33874   0.01267  Uiso   1.00
H1     H     0.20220   0.79050   0.18320   0.01267  Uiso   1.00
H2     H     0.18510   0.96900   0.08410   0.01267  Uiso   1.00
H3     H     0.39740   0.08720   0.68780   0.01267  Uiso   1.00
H4     H     0.51670   0.09020   0.85380   0.01267  Uiso   1.00
H5     H     0.61980   0.96910   0.74390   0.01267  Uiso   1.00
H6     H     0.35320   0.59170   0.62660   0.01267  Uiso   1.00
H7     H     0.65630   0.40250   0.64140   0.01267  Uiso   1.00
H8     H     0.06390   0.28130   0.56170   0.01267  Uiso   1.00
H9     H     0.49560   0.74790   0.33450   0.01267  Uiso   1.00
H10    H     0.81490   0.03100   0.91590   0.01267  Uiso   1.00
H11    H     0.29100   0.95010   0.80650   0.01267  Uiso   1.00
H12    H     0.64680   0.40830   0.37340   0.01267  Uiso   1.00
H13    H     0.17210   0.99500   0.36490   0.01267  Uiso   1.00
H14    H     0.79340   0.20680   0.09930   0.01267  Uiso   1.00
H15    H     0.38020   0.03090   0.25610   0.01267  Uiso   1.00
H16    H     0.79780   0.20950   0.81680   0.01267  Uiso   1.00
H17    H     0.03760   0.85690   0.32370   0.01267  Uiso   1.00
H18    H     0.50030   0.73630   0.60700   0.01267  Uiso   1.00
H19    H     0.92210   0.33730   0.15700   0.01267  Uiso   1.00
H20    H     0.48330   0.90980   0.14620   0.01267  Uiso   1.00
H21    H     0.33860   0.31390   0.05990   0.01267  Uiso   1.00
H22    H     0.55830   0.80720   0.04990   0.01267  Uiso   1.00
H23    H     0.84650   0.70120   0.10050   0.01267  Uiso   1.00
H24    H     0.82940   0.87970   0.00130   0.01267  Uiso   1.00
H25    H     0.70900   0.04990   0.19350   0.01267  Uiso   1.00
H26    H     0.60260   0.91280   0.31220   0.01267  Uiso   1.00
H27    H     0.44170   0.19280   0.95010   0.01267  Uiso   1.00
H28    H     0.93610   0.71870   0.43830   0.01267  Uiso   1.00
H29    H     0.17060   0.12030   0.99870   0.01267  Uiso   1.00
H30    H     0.82790   0.00500   0.63510   0.01267  Uiso   1.00
H31    H     0.66140   0.68610   0.94010   0.01267  Uiso   1.00
H32    H     0.34370   0.59750   0.35860   0.01267  Uiso   1.00
H33    H     0.96240   0.14310   0.67630   0.01267  Uiso   1.00
H34    H     0.07790   0.66270   0.84300   0.01267  Uiso   1.00
H35    H     0.50440   0.25210   0.66550   0.01267  Uiso   1.00
H36    H     0.20660   0.79320   0.90070   0.01267  Uiso   1.00
H37    H     0.49970   0.26370   0.39300   0.01267  Uiso   1.00
H38    H     0.15350   0.29880   0.89950   0.01267  Uiso   1.00
C1     C     0.60750   0.93660   0.80530   0.01267  Uiso   1.00
C2     C     0.51500   0.75910   0.46640   0.01267  Uiso   1.00
C3     C     0.88670   0.15970   0.43570   0.01267  Uiso   1.00
C4     C     0.11200   0.72640   0.80300   0.01267  Uiso   1.00
C5     C     0.45430   0.99080   0.12890   0.01267  Uiso   1.00
C6     C     0.71520   0.00500   0.37800   0.01267  Uiso   1.00
C7     C     0.57060   0.83960   0.98860   0.01267  Uiso   1.00
C8     C     0.77600   0.09500   0.31010   0.01267  Uiso   1.00
C9     C     0.48500   0.24090   0.53360   0.01267  Uiso   1.00
C10    C     0.25840   0.00270   0.53260   0.01267  Uiso   1.00
C11    C     0.02610   0.72810   0.15170   0.01267  Uiso   1.00
C12    C     0.75700   0.10520   0.21630   0.01267  Uiso   1.00
C13    C     0.08560   0.24510   0.90280   0.01267  Uiso   1.00
C14    C     0.65080   0.81560   0.83110   0.01267  Uiso   1.00
C15    C     0.13820   0.93520   0.40870   0.01267  Uiso   1.00
C16    C     0.52730   0.96070   0.96280   0.01267  Uiso   1.00
C17    C     0.53100   0.29010   0.44370   0.01267  Uiso   1.00
C18    C     0.46900   0.70990   0.55630   0.01267  Uiso   1.00
C19    C     0.86200   0.17310   0.33960   0.01267  Uiso   1.00
C20    C     0.03300   0.61610   0.21990   0.01267  Uiso   1.00
C21    C     0.88800   0.27360   0.19700   0.01267  Uiso   1.00
C22    C     0.47270   0.03930   0.03720   0.01267  Uiso   1.00
C23    C     0.19100   0.80500   0.83880   0.01267  Uiso   1.00
C24    C     0.39250   0.06340   0.19470   0.01267  Uiso   1.00
C25    C     0.00360   0.22990   0.54580   0.01267  Uiso   1.00
C26    C     0.97390   0.27190   0.84830   0.01267  Uiso   1.00
C27    C     0.12750   0.80840   0.14680   0.01267  Uiso   1.00
C28    C     0.80900   0.19500   0.16120   0.01267  Uiso   1.00
C29    C     0.61950   0.37440   0.43270   0.01267  Uiso   1.00
C30    C     0.38050   0.62560   0.56730   0.01267  Uiso   1.00
C31    C     0.37350   0.62770   0.40820   0.01267  Uiso   1.00
C32    C     0.32740   0.58620   0.49540   0.01267  Uiso   1.00
C33    C     0.36760   0.23290   0.07720   0.01267  Uiso   1.00
C34    C     0.11720   0.91530   0.08740   0.01267  Uiso   1.00
C35    C     0.78750   0.49790   0.48700   0.01267  Uiso   1.00
C36    C     0.46620   0.71660   0.39410   0.01267  Uiso   1.00
C37    C     0.60970   0.85960   0.44430   0.01267  Uiso   1.00
C38    C     0.39030   0.14040   0.55570   0.01267  Uiso   1.00
C39    C     0.21250   0.50210   0.51300   0.01267  Uiso   1.00
C40    C     0.82870   0.07300   0.50300   0.01267  Uiso   1.00
C41    C     0.90410   0.86180   0.03780   0.01267  Uiso   1.00
C42    C     0.17130   0.92700   0.49700   0.01267  Uiso   1.00
C43    C     0.88280   0.08470   0.91260   0.01267  Uiso   1.00
C44    C     0.62650   0.37230   0.59180   0.01267  Uiso   1.00
C45    C     0.99440   0.05800   0.96710   0.01267  Uiso   1.00
C46    C     0.42940   0.16040   0.01140   0.01267  Uiso   1.00
C47    C     0.74160   0.99730   0.46740   0.01267  Uiso   1.00
C48    C     0.22400   0.90500   0.68990   0.01267  Uiso   1.00
C49    C     0.28480   0.99500   0.62200   0.01267  Uiso   1.00
C50    C     0.00560   0.94200   0.03290   0.01267  Uiso   1.00
C51    C     0.96700   0.38390   0.78010   0.01267  Uiso   1.00
C52    C     0.87250   0.19160   0.85320   0.01267  Uiso   1.00
C53    C     0.13800   0.82690   0.66040   0.01267  Uiso   1.00
C54    C     0.54570   0.00920   0.87110   0.01267  Uiso   1.00
C55    C     0.94470   0.14460   0.61540   0.01267  Uiso   1.00
C56    C     0.24300   0.89480   0.78370   0.01267  Uiso   1.00
C57    C     0.99640   0.77010   0.45420   0.01267  Uiso   1.00
C58    C     0.53380   0.28340   0.60590   0.01267  Uiso   1.00
C59    C     0.11330   0.84030   0.56430   0.01267  Uiso   1.00
C60    C     0.05530   0.85540   0.38460   0.01267  Uiso   1.00
C61    C     0.63240   0.76710   0.92280   0.01267  Uiso   1.00
C62    C     0.34920   0.18440   0.16890   0.01267  Uiso   1.00
C63    C     0.91440   0.75490   0.09720   0.01267  Uiso   1.00
C64    C     0.67260   0.41380   0.50460   0.01267  Uiso   1.00
C65    C     0.09590   0.13820   0.96220   0.01267  Uiso   1.00
C66    C     0.86180   0.06480   0.59130   0.01267  Uiso   1.00
C67    C     0.26900   0.26250   0.23320   0.01267  Uiso   1.00
C68    C     0.73100   0.73750   0.76680   0.01267  Uiso   1.00
N1     N     0.67360   0.90260   0.51160   0.01267  Uiso   1.00
N2     N     0.36680   0.07740   0.63690   0.01267  Uiso   1.00
N3     N     0.63320   0.92260   0.36310   0.01267  Uiso   1.00
N4     N     0.97510   0.23820   0.45880   0.01267  Uiso   1.00
N5     N     0.02490   0.76180   0.54120   0.01267  Uiso   1.00
N6     N     0.91850   0.26250   0.28430   0.01267  Uiso   1.00
N7     N     0.32640   0.09740   0.48840   0.01267  Uiso   1.00
N8     N     0.08150   0.73750   0.71570   0.01267  Uiso   1.00
O1     O     0.04150   0.46690   0.78730   0.01267  Uiso   1.00
O2     O     0.80310   0.56010   0.55060   0.01267  Uiso   1.00
O3     O     0.22400   0.36750   0.20470   0.01267  Uiso   1.00
O4     O     0.75620   0.77430   0.68090   0.01267  Uiso   1.00
O5     O     0.12170   0.60560   0.27870   0.01267  Uiso   1.00
O6     O     0.24380   0.22570   0.31910   0.01267  Uiso   1.00
O7     O     0.95850   0.53310   0.21270   0.01267  Uiso   1.00
O8     O     0.19690   0.43990   0.44940   0.01267  Uiso   1.00
O9     O     0.86640   0.50060   0.41390   0.01267  Uiso   1.00
O10    O     0.87830   0.39440   0.72130   0.01267  Uiso   1.00
O11    O     0.77600   0.63250   0.79530   0.01267  Uiso   1.00
O12    O     0.13360   0.49940   0.58610   0.01267  Uiso   1.00
