data_KIPKIF_clean
_audit_creation_date              2014-07-02
_audit_creation_method            'Materials Studio'
_symmetry_space_group_name_H-M    'P1'
_symmetry_Int_Tables_number       1
_symmetry_cell_setting            triclinic
loop_
_symmetry_equiv_pos_as_xyz
  x,y,z
_cell_length_a                    8.5159
_cell_length_b                    31.2059
_cell_length_c                    31.2059
_cell_angle_alpha                 88.9332
_cell_angle_beta                  82.1577
_cell_angle_gamma                 82.1578
loop_
_atom_site_label
_atom_site_type_symbol
_atom_site_fract_x
_atom_site_fract_y
_atom_site_fract_z
_atom_site_U_iso_or_equiv
_atom_site_adp_type
_atom_site_occupancy
Zn1    Zn    0.75782   0.45635   0.14823   0.01267  Uiso   1.00
Zn2    Zn    0.42019   0.44355   0.20541   0.01267  Uiso   1.00
Zn3    Zn    0.86240   0.04365   0.35177   0.01267  Uiso   1.00
Zn4    Zn    0.56915   0.05645   0.29459   0.01267  Uiso   1.00
Zn5    Zn    0.90605   0.85177   0.95635   0.01267  Uiso   1.00
Zn6    Zn    0.62560   0.79459   0.94355   0.01267  Uiso   1.00
Zn7    Zn    0.21417   0.64823   0.54365   0.01267  Uiso   1.00
Zn8    Zn    0.86374   0.70541   0.55645   0.01267  Uiso   1.00
Zn9    Zn    0.24218   0.54365   0.85177   0.01267  Uiso   1.00
Zn10   Zn    0.57981   0.55645   0.79459   0.01267  Uiso   1.00
Zn11   Zn    0.13760   0.95635   0.64823   0.01267  Uiso   1.00
Zn12   Zn    0.43085   0.94355   0.70541   0.01267  Uiso   1.00
Zn13   Zn    0.09395   0.14823   0.04365   0.01267  Uiso   1.00
Zn14   Zn    0.37440   0.20541   0.05645   0.01267  Uiso   1.00
Zn15   Zn    0.78583   0.35177   0.45635   0.01267  Uiso   1.00
Zn16   Zn    0.13626   0.29459   0.44355   0.01267  Uiso   1.00
H1     H     0.90410   0.39070   0.08330   0.01267  Uiso   1.00
H2     H     0.93930   0.34030   0.08830   0.01267  Uiso   1.00
H3     H     0.82070   0.36030   0.05670   0.01267  Uiso   1.00
H4     H     0.32680   0.35300   0.21420   0.01267  Uiso   1.00
H5     H     0.30970   0.32550   0.17390   0.01267  Uiso   1.00
H6     H     0.42640   0.30710   0.20670   0.01267  Uiso   1.00
H7     H     0.29280   0.29920   0.06160   0.01267  Uiso   1.00
H8     H     0.29200   0.32420   0.10480   0.01267  Uiso   1.00
H9     H     0.39060   0.33830   0.06190   0.01267  Uiso   1.00
H10    H     0.92180   0.21510   0.12210   0.01267  Uiso   1.00
H11    H     0.95030   0.26360   0.11900   0.01267  Uiso   1.00
H12    H     0.85200   0.24670   0.16050   0.01267  Uiso   1.00
H13    H     0.14280   0.54960   0.14980   0.01267  Uiso   1.00
H14    H     0.02510   0.60700   0.11220   0.01267  Uiso   1.00
H15    H     0.45280   0.61800   0.04440   0.01267  Uiso   1.00
H16    H     0.56890   0.56130   0.08270   0.01267  Uiso   1.00
H17    H     0.21180   0.74790   0.00590   0.01267  Uiso   1.00
H18    H     0.33310   0.69110   0.04250   0.01267  Uiso   1.00
H19    H     0.94400   0.63180   0.04720   0.01267  Uiso   1.00
H20    H     0.82380   0.68860   0.00880   0.01267  Uiso   1.00
H21    H     0.05450   0.50200   0.04400   0.01267  Uiso   1.00
H22    H     0.24780   0.52590   0.99410   0.01267  Uiso   1.00
H23    H     0.58260   0.44800   0.04540   0.01267  Uiso   1.00
H24    H     0.38850   0.42300   0.09440   0.01267  Uiso   1.00
H25    H     0.70890   0.19720   0.08300   0.01267  Uiso   1.00
H26    H     0.87810   0.10930   0.41670   0.01267  Uiso   1.00
H27    H     0.86790   0.15970   0.41170   0.01267  Uiso   1.00
H28    H     0.73770   0.13970   0.44330   0.01267  Uiso   1.00
H29    H     0.39400   0.14700   0.28580   0.01267  Uiso   1.00
H30    H     0.30910   0.17450   0.32610   0.01267  Uiso   1.00
H31    H     0.44020   0.19290   0.29330   0.01267  Uiso   1.00
H32    H     0.15360   0.20080   0.43840   0.01267  Uiso   1.00
H33    H     0.22100   0.17580   0.39520   0.01267  Uiso   1.00
H34    H     0.29080   0.16170   0.43810   0.01267  Uiso   1.00
H35    H     0.75900   0.28490   0.37790   0.01267  Uiso   1.00
H36    H     0.83290   0.23640   0.38100   0.01267  Uiso   1.00
H37    H     0.75920   0.25330   0.33950   0.01267  Uiso   1.00
H38    H     0.34220   0.95040   0.35020   0.01267  Uiso   1.00
H39    H     0.24430   0.89300   0.38780   0.01267  Uiso   1.00
H40    H     0.61520   0.88200   0.45560   0.01267  Uiso   1.00
H41    H     0.71290   0.93870   0.41730   0.01267  Uiso   1.00
H42    H     0.46560   0.75210   0.49410   0.01267  Uiso   1.00
H43    H     0.56670   0.80890   0.45750   0.01267  Uiso   1.00
H44    H     0.12300   0.86820   0.45280   0.01267  Uiso   1.00
H45    H     0.02120   0.81140   0.49120   0.01267  Uiso   1.00
H46    H     0.10050   0.99800   0.45600   0.01267  Uiso   1.00
H47    H     0.26780   0.97410   0.50590   0.01267  Uiso   1.00
H48    H     0.57600   0.05200   0.45460   0.01267  Uiso   1.00
H49    H     0.40590   0.07700   0.40560   0.01267  Uiso   1.00
H50    H     0.48910   0.30280   0.41700   0.01267  Uiso   1.00
H51    H     0.98740   0.91670   0.89070   0.01267  Uiso   1.00
H52    H     0.02760   0.91170   0.84030   0.01267  Uiso   1.00
H53    H     0.87740   0.94330   0.86030   0.01267  Uiso   1.00
H54    H     0.54100   0.78580   0.85300   0.01267  Uiso   1.00
H55    H     0.48360   0.82610   0.82550   0.01267  Uiso   1.00
H56    H     0.63310   0.79330   0.80710   0.01267  Uiso   1.00
H57    H     0.35440   0.93840   0.79920   0.01267  Uiso   1.00
H58    H     0.39680   0.89520   0.82420   0.01267  Uiso   1.00
H59    H     0.45250   0.93810   0.83830   0.01267  Uiso   1.00
H60    H     0.04390   0.87790   0.71510   0.01267  Uiso   1.00
H61    H     0.06930   0.88100   0.76360   0.01267  Uiso   1.00
H62    H     0.01250   0.83950   0.74670   0.01267  Uiso   1.00
H63    H     0.29260   0.85020   0.04960   0.01267  Uiso   1.00
H64    H     0.13730   0.88780   0.10700   0.01267  Uiso   1.00
H65    H     0.49720   0.95560   0.11800   0.01267  Uiso   1.00
H66    H     0.65160   0.91730   0.06130   0.01267  Uiso   1.00
H67    H     0.21770   0.99410   0.24790   0.01267  Uiso   1.00
H68    H     0.37560   0.95750   0.19110   0.01267  Uiso   1.00
H69    H     0.99120   0.95280   0.13180   0.01267  Uiso   1.00
H70    H     0.83260   0.99120   0.18860   0.01267  Uiso   1.00
H71    H     0.09850   0.95600   0.00200   0.01267  Uiso   1.00
H72    H     0.24190   0.00590   0.02590   0.01267  Uiso   1.00
H73    H     0.62800   0.95460   0.94800   0.01267  Uiso   1.00
H74    H     0.48290   0.90560   0.92300   0.01267  Uiso   1.00
H75    H     0.79190   0.91700   0.69720   0.01267  Uiso   1.00
H76    H     0.29480   0.58330   0.60930   0.01267  Uiso   1.00
H77    H     0.27960   0.58830   0.65970   0.01267  Uiso   1.00
H78    H     0.18100   0.55670   0.63970   0.01267  Uiso   1.00
H79    H     0.67980   0.71420   0.64700   0.01267  Uiso   1.00
H80    H     0.63520   0.67390   0.67450   0.01267  Uiso   1.00
H81    H     0.73350   0.70670   0.69290   0.01267  Uiso   1.00
H82    H     0.59200   0.56160   0.70080   0.01267  Uiso   1.00
H83    H     0.61620   0.60480   0.67580   0.01267  Uiso   1.00
H84    H     0.72890   0.56190   0.66170   0.01267  Uiso   1.00
H85    H     0.13690   0.62210   0.78490   0.01267  Uiso   1.00
H86    H     0.21390   0.61900   0.73640   0.01267  Uiso   1.00
H87    H     0.09870   0.66050   0.75330   0.01267  Uiso   1.00
H88    H     0.69240   0.64980   0.45040   0.01267  Uiso   1.00
H89    H     0.63210   0.61220   0.39300   0.01267  Uiso   1.00
H90    H     0.07080   0.54440   0.38200   0.01267  Uiso   1.00
H91    H     0.13020   0.58270   0.43870   0.01267  Uiso   1.00
H92    H     0.95970   0.50590   0.25210   0.01267  Uiso   1.00
H93    H     0.02420   0.54250   0.30890   0.01267  Uiso   1.00
H94    H     0.57580   0.54720   0.36820   0.01267  Uiso   1.00
H95    H     0.51240   0.50880   0.31140   0.01267  Uiso   1.00
H96    H     0.55650   0.54400   0.49800   0.01267  Uiso   1.00
H97    H     0.77370   0.49410   0.47410   0.01267  Uiso   1.00
H98    H     0.03060   0.54540   0.55200   0.01267  Uiso   1.00
H99    H     0.81150   0.59440   0.57700   0.01267  Uiso   1.00
H100   H     0.90610   0.58300   0.80280   0.01267  Uiso   1.00
H101   H     0.09590   0.60930   0.91670   0.01267  Uiso   1.00
H102   H     0.06070   0.65970   0.91170   0.01267  Uiso   1.00
H103   H     0.17930   0.63970   0.94330   0.01267  Uiso   1.00
H104   H     0.67320   0.64700   0.78580   0.01267  Uiso   1.00
H105   H     0.69030   0.67450   0.82610   0.01267  Uiso   1.00
H106   H     0.57360   0.69290   0.79330   0.01267  Uiso   1.00
H107   H     0.70720   0.70080   0.93840   0.01267  Uiso   1.00
H108   H     0.70800   0.67580   0.89520   0.01267  Uiso   1.00
H109   H     0.60940   0.66170   0.93810   0.01267  Uiso   1.00
H110   H     0.07820   0.78490   0.87790   0.01267  Uiso   1.00
H111   H     0.04970   0.73640   0.88100   0.01267  Uiso   1.00
H112   H     0.14800   0.75330   0.83950   0.01267  Uiso   1.00
H113   H     0.85720   0.45040   0.85020   0.01267  Uiso   1.00
H114   H     0.97490   0.39300   0.88780   0.01267  Uiso   1.00
H115   H     0.54720   0.38200   0.95560   0.01267  Uiso   1.00
H116   H     0.43110   0.43870   0.91730   0.01267  Uiso   1.00
H117   H     0.78820   0.25210   0.99410   0.01267  Uiso   1.00
H118   H     0.66690   0.30890   0.95750   0.01267  Uiso   1.00
H119   H     0.05600   0.36820   0.95280   0.01267  Uiso   1.00
H120   H     0.17620   0.31140   0.99120   0.01267  Uiso   1.00
H121   H     0.94550   0.49800   0.95600   0.01267  Uiso   1.00
H122   H     0.75220   0.47410   0.00590   0.01267  Uiso   1.00
H123   H     0.41740   0.55200   0.95460   0.01267  Uiso   1.00
H124   H     0.61150   0.57700   0.90560   0.01267  Uiso   1.00
H125   H     0.29110   0.80280   0.91700   0.01267  Uiso   1.00
H126   H     0.12190   0.89070   0.58330   0.01267  Uiso   1.00
H127   H     0.13210   0.84030   0.58830   0.01267  Uiso   1.00
H128   H     0.26230   0.86030   0.55670   0.01267  Uiso   1.00
H129   H     0.60600   0.85300   0.71420   0.01267  Uiso   1.00
H130   H     0.69090   0.82550   0.67390   0.01267  Uiso   1.00
H131   H     0.55980   0.80710   0.70670   0.01267  Uiso   1.00
H132   H     0.84640   0.79920   0.56160   0.01267  Uiso   1.00
H133   H     0.77900   0.82420   0.60480   0.01267  Uiso   1.00
H134   H     0.70920   0.83830   0.56190   0.01267  Uiso   1.00
H135   H     0.24100   0.71510   0.62210   0.01267  Uiso   1.00
H136   H     0.16710   0.76360   0.61900   0.01267  Uiso   1.00
H137   H     0.24080   0.74670   0.66050   0.01267  Uiso   1.00
H138   H     0.65780   0.04960   0.64980   0.01267  Uiso   1.00
H139   H     0.75570   0.10700   0.61220   0.01267  Uiso   1.00
H140   H     0.38480   0.11800   0.54440   0.01267  Uiso   1.00
H141   H     0.28710   0.06130   0.58270   0.01267  Uiso   1.00
H142   H     0.53440   0.24790   0.50590   0.01267  Uiso   1.00
H143   H     0.43330   0.19110   0.54250   0.01267  Uiso   1.00
H144   H     0.87700   0.13180   0.54720   0.01267  Uiso   1.00
H145   H     0.97880   0.18860   0.50880   0.01267  Uiso   1.00
H146   H     0.89950   0.00200   0.54400   0.01267  Uiso   1.00
H147   H     0.73220   0.02590   0.49410   0.01267  Uiso   1.00
H148   H     0.42400   0.94800   0.54540   0.01267  Uiso   1.00
H149   H     0.59410   0.92300   0.59440   0.01267  Uiso   1.00
H150   H     0.51090   0.69720   0.58300   0.01267  Uiso   1.00
H151   H     0.01260   0.08330   0.10930   0.01267  Uiso   1.00
H152   H     0.97240   0.08830   0.15970   0.01267  Uiso   1.00
H153   H     0.12260   0.05670   0.13970   0.01267  Uiso   1.00
H154   H     0.45900   0.21420   0.14700   0.01267  Uiso   1.00
H155   H     0.51640   0.17390   0.17450   0.01267  Uiso   1.00
H156   H     0.36690   0.20670   0.19290   0.01267  Uiso   1.00
H157   H     0.64560   0.06160   0.20080   0.01267  Uiso   1.00
H158   H     0.60320   0.10480   0.17580   0.01267  Uiso   1.00
H159   H     0.54750   0.06190   0.16170   0.01267  Uiso   1.00
H160   H     0.95610   0.12210   0.28490   0.01267  Uiso   1.00
H161   H     0.93070   0.11900   0.23640   0.01267  Uiso   1.00
H162   H     0.98750   0.16050   0.25330   0.01267  Uiso   1.00
H163   H     0.70740   0.14980   0.95040   0.01267  Uiso   1.00
H164   H     0.86270   0.11220   0.89300   0.01267  Uiso   1.00
H165   H     0.50280   0.04440   0.88200   0.01267  Uiso   1.00
H166   H     0.34840   0.08270   0.93870   0.01267  Uiso   1.00
H167   H     0.78230   0.00590   0.75210   0.01267  Uiso   1.00
H168   H     0.62440   0.04250   0.80890   0.01267  Uiso   1.00
H169   H     0.00880   0.04720   0.86820   0.01267  Uiso   1.00
H170   H     0.16740   0.00880   0.81140   0.01267  Uiso   1.00
H171   H     0.90150   0.04400   0.99800   0.01267  Uiso   1.00
H172   H     0.75810   0.99410   0.97410   0.01267  Uiso   1.00
H173   H     0.37200   0.04540   0.05200   0.01267  Uiso   1.00
H174   H     0.51710   0.09440   0.07700   0.01267  Uiso   1.00
H175   H     0.20810   0.08300   0.30280   0.01267  Uiso   1.00
H176   H     0.70520   0.41670   0.39070   0.01267  Uiso   1.00
H177   H     0.72040   0.41170   0.34030   0.01267  Uiso   1.00
H178   H     0.81900   0.44330   0.36030   0.01267  Uiso   1.00
H179   H     0.32020   0.28580   0.35300   0.01267  Uiso   1.00
H180   H     0.36480   0.32610   0.32550   0.01267  Uiso   1.00
H181   H     0.26650   0.29330   0.30710   0.01267  Uiso   1.00
H182   H     0.40800   0.43840   0.29920   0.01267  Uiso   1.00
H183   H     0.38380   0.39520   0.32420   0.01267  Uiso   1.00
H184   H     0.27110   0.43810   0.33830   0.01267  Uiso   1.00
H185   H     0.86310   0.37790   0.21510   0.01267  Uiso   1.00
H186   H     0.78610   0.38100   0.26360   0.01267  Uiso   1.00
H187   H     0.90130   0.33950   0.24670   0.01267  Uiso   1.00
H188   H     0.30760   0.35020   0.54960   0.01267  Uiso   1.00
H189   H     0.36790   0.38780   0.60700   0.01267  Uiso   1.00
H190   H     0.92920   0.45560   0.61800   0.01267  Uiso   1.00
H191   H     0.86980   0.41730   0.56130   0.01267  Uiso   1.00
H192   H     0.04030   0.49410   0.74790   0.01267  Uiso   1.00
H193   H     0.97580   0.45750   0.69110   0.01267  Uiso   1.00
H194   H     0.42420   0.45280   0.63180   0.01267  Uiso   1.00
H195   H     0.48760   0.49120   0.68860   0.01267  Uiso   1.00
H196   H     0.44350   0.45600   0.50200   0.01267  Uiso   1.00
H197   H     0.22630   0.50590   0.52590   0.01267  Uiso   1.00
H198   H     0.96940   0.45460   0.44800   0.01267  Uiso   1.00
H199   H     0.18850   0.40560   0.42300   0.01267  Uiso   1.00
H200   H     0.09390   0.41700   0.19720   0.01267  Uiso   1.00
C1     C     0.85896   0.36409   0.08379   0.01267  Uiso   1.00
C2     C     0.72262   0.36552   0.11984   0.01267  Uiso   1.00
C3     C     0.62402   0.33474   0.13242   0.01267  Uiso   1.00
C4     C     0.51422   0.35252   0.16684   0.01267  Uiso   1.00
C5     C     0.38266   0.33280   0.19268   0.01267  Uiso   1.00
C6     C     0.35568   0.31406   0.07818   0.01267  Uiso   1.00
C7     C     0.49741   0.28394   0.08784   0.01267  Uiso   1.00
C8     C     0.61817   0.29294   0.11112   0.01267  Uiso   1.00
C9     C     0.72544   0.25531   0.10981   0.01267  Uiso   1.00
C10    C     0.87579   0.24421   0.12961   0.01267  Uiso   1.00
C11    C     0.44091   0.51190   0.14368   0.01267  Uiso   1.00
C12    C     0.36622   0.54980   0.12016   0.01267  Uiso   1.00
C13    C     0.20531   0.56354   0.12864   0.01267  Uiso   1.00
C14    C     0.13452   0.59793   0.10603   0.01267  Uiso   1.00
C15    C     0.22800   0.61908   0.07392   0.01267  Uiso   1.00
C16    C     0.38944   0.60455   0.06577   0.01267  Uiso   1.00
C17    C     0.45951   0.57043   0.08855   0.01267  Uiso   1.00
C18    C     0.92358   0.76129   0.98035   0.01267  Uiso   1.00
C19    C     0.00473   0.72453   0.00401   0.01267  Uiso   1.00
C20    C     0.15726   0.72459   0.01409   0.01267  Uiso   1.00
C21    C     0.22985   0.69053   0.03617   0.01267  Uiso   1.00
C22    C     0.15191   0.65523   0.04915   0.01267  Uiso   1.00
C23    C     0.99884   0.65508   0.03884   0.01267  Uiso   1.00
C24    C     0.92582   0.68937   0.01599   0.01267  Uiso   1.00
C25    C     0.07338   0.44827   0.10977   0.01267  Uiso   1.00
C26    C     0.20058   0.46041   0.07523   0.01267  Uiso   1.00
C27    C     0.16131   0.49095   0.04463   0.01267  Uiso   1.00
C28    C     0.27832   0.50564   0.01472   0.01267  Uiso   1.00
C29    C     0.43692   0.49112   0.01484   0.01267  Uiso   1.00
C30    C     0.47597   0.45934   0.04512   0.01267  Uiso   1.00
C31    C     0.35900   0.44433   0.07467   0.01267  Uiso   1.00
C32    C     0.80684   0.13591   0.41621   0.01267  Uiso   1.00
C33    C     0.70798   0.13448   0.38016   0.01267  Uiso   1.00
C34    C     0.59118   0.16526   0.36758   0.01267  Uiso   1.00
C35    C     0.53358   0.14748   0.33316   0.01267  Uiso   1.00
C36    C     0.40814   0.16720   0.30732   0.01267  Uiso   1.00
C37    C     0.24792   0.18594   0.42182   0.01267  Uiso   1.00
C38    C     0.36919   0.21606   0.41216   0.01267  Uiso   1.00
C39    C     0.52223   0.20706   0.38888   0.01267  Uiso   1.00
C40    C     0.59056   0.24469   0.39019   0.01267  Uiso   1.00
C41    C     0.74961   0.25579   0.37039   0.01267  Uiso   1.00
C42    C     0.59649   0.98810   0.35632   0.01267  Uiso   1.00
C43    C     0.53618   0.95020   0.37984   0.01267  Uiso   1.00
C44    C     0.39749   0.93646   0.37136   0.01267  Uiso   1.00
C45    C     0.33848   0.90207   0.39397   0.01267  Uiso   1.00
C46    C     0.42100   0.88092   0.42608   0.01267  Uiso   1.00
C47    C     0.55976   0.89545   0.43423   0.01267  Uiso   1.00
C48    C     0.61849   0.92957   0.41145   0.01267  Uiso   1.00
C49    C     0.16522   0.73871   0.51965   0.01267  Uiso   1.00
C50    C     0.23327   0.77547   0.49599   0.01267  Uiso   1.00
C51    C     0.39594   0.77541   0.48591   0.01267  Uiso   1.00
C52    C     0.45655   0.80947   0.46383   0.01267  Uiso   1.00
C53    C     0.35629   0.84477   0.45085   0.01267  Uiso   1.00
C54    C     0.19276   0.84492   0.46116   0.01267  Uiso   1.00
C55    C     0.13118   0.81063   0.48401   0.01267  Uiso   1.00
C56    C     0.13142   0.05173   0.39023   0.01267  Uiso   1.00
C57    C     0.23622   0.03959   0.42477   0.01267  Uiso   1.00
C58    C     0.19689   0.00905   0.45537   0.01267  Uiso   1.00
C59    C     0.29868   0.99436   0.48528   0.01267  Uiso   1.00
C60    C     0.44288   0.00888   0.48516   0.01267  Uiso   1.00
C61    C     0.48043   0.04066   0.45488   0.01267  Uiso   1.00
C62    C     0.37800   0.05567   0.42533   0.01267  Uiso   1.00
C63    C     0.94275   0.91621   0.86409   0.01267  Uiso   1.00
C64    C     0.84246   0.88016   0.86552   0.01267  Uiso   1.00
C65    C     0.75644   0.86758   0.83474   0.01267  Uiso   1.00
C66    C     0.68106   0.83316   0.85252   0.01267  Uiso   1.00
C67    C     0.57534   0.80732   0.83280   0.01267  Uiso   1.00
C68    C     0.43386   0.92182   0.81406   0.01267  Uiso   1.00
C69    C     0.58525   0.91216   0.78394   0.01267  Uiso   1.00
C70    C     0.72929   0.88888   0.79294   0.01267  Uiso   1.00
C71    C     0.83525   0.89019   0.75531   0.01267  Uiso   1.00
C72    C     0.00540   0.87039   0.74421   0.01267  Uiso   1.00
C73    C     0.58459   0.85632   0.01190   0.01267  Uiso   1.00
C74    C     0.48638   0.87984   0.04980   0.01267  Uiso   1.00
C75    C     0.33395   0.87136   0.06354   0.01267  Uiso   1.00
C76    C     0.24055   0.89397   0.09793   0.01267  Uiso   1.00
C77    C     0.30192   0.92608   0.11908   0.01267  Uiso   1.00
C78    C     0.45521   0.93423   0.10455   0.01267  Uiso   1.00
C79    C     0.54806   0.91145   0.07043   0.01267  Uiso   1.00
C80    C     0.90393   0.01965   0.26129   0.01267  Uiso   1.00
C81    C     0.00874   0.99599   0.22453   0.01267  Uiso   1.00
C82    C     0.17135   0.98591   0.22459   0.01267  Uiso   1.00
C83    C     0.26602   0.96383   0.19053   0.01267  Uiso   1.00
C84    C     0.20106   0.95085   0.15523   0.01267  Uiso   1.00
C85    C     0.03768   0.96116   0.15508   0.01267  Uiso   1.00
C86    C     0.94181   0.98401   0.18937   0.01267  Uiso   1.00
C87    C     0.18315   0.89023   0.94827   0.01267  Uiso   1.00
C88    C     0.27581   0.92477   0.96041   0.01267  Uiso   1.00
C89    C     0.20594   0.95537   0.99095   0.01267  Uiso   1.00
C90    C     0.29304   0.98528   0.00564   0.01267  Uiso   1.00
C91    C     0.45176   0.98516   0.99112   0.01267  Uiso   1.00
C92    C     0.52109   0.95488   0.95934   0.01267  Uiso   1.00
C93    C     0.43367   0.92533   0.94433   0.01267  Uiso   1.00
C94    C     0.22305   0.58379   0.63591   0.01267  Uiso   1.00
C95    C     0.08814   0.61984   0.63448   0.01267  Uiso   1.00
C96    C     0.95876   0.63242   0.66526   0.01267  Uiso   1.00
C97    C     0.86674   0.66684   0.64748   0.01267  Uiso   1.00
C98    C     0.71546   0.69268   0.66720   0.01267  Uiso   1.00
C99    C     0.66974   0.57818   0.68594   0.01267  Uiso   1.00
C100   C     0.78135   0.58784   0.71606   0.01267  Uiso   1.00
C101   C     0.91111   0.61112   0.70706   0.01267  Uiso   1.00
C102   C     0.98075   0.60981   0.74469   0.01267  Uiso   1.00
C103   C     0.12000   0.62961   0.75579   0.01267  Uiso   1.00
C104   C     0.95281   0.64368   0.48810   0.01267  Uiso   1.00
C105   C     0.91602   0.62016   0.45020   0.01267  Uiso   1.00
C106   C     0.76885   0.62864   0.43646   0.01267  Uiso   1.00
C107   C     0.73245   0.60603   0.40207   0.01267  Uiso   1.00
C108   C     0.84708   0.57392   0.38092   0.01267  Uiso   1.00
C109   C     0.99399   0.56577   0.39545   0.01267  Uiso   1.00
C110   C     0.02994   0.58855   0.42957   0.01267  Uiso   1.00
C111   C     0.68487   0.48035   0.23871   0.01267  Uiso   1.00
C112   C     0.72926   0.50401   0.27547   0.01267  Uiso   1.00
C113   C     0.88185   0.51409   0.27541   0.01267  Uiso   1.00
C114   C     0.92038   0.53617   0.30947   0.01267  Uiso   1.00
C115   C     0.80714   0.54915   0.34477   0.01267  Uiso   1.00
C116   C     0.65392   0.53884   0.34492   0.01267  Uiso   1.00
C117   C     0.61519   0.51599   0.31063   0.01267  Uiso   1.00
C118   C     0.52165   0.60977   0.55173   0.01267  Uiso   1.00
C119   C     0.66099   0.57523   0.53959   0.01267  Uiso   1.00
C120   C     0.65226   0.54463   0.50905   0.01267  Uiso   1.00
C121   C     0.78396   0.51472   0.49436   0.01267  Uiso   1.00
C122   C     0.92804   0.51484   0.50888   0.01267  Uiso   1.00
C123   C     0.93531   0.54512   0.54066   0.01267  Uiso   1.00
C124   C     0.80333   0.57467   0.55567   0.01267  Uiso   1.00
C125   C     0.14104   0.63591   0.91621   0.01267  Uiso   1.00
C126   C     0.27738   0.63448   0.88016   0.01267  Uiso   1.00
C127   C     0.37598   0.66526   0.86758   0.01267  Uiso   1.00
C128   C     0.48578   0.64748   0.83316   0.01267  Uiso   1.00
C129   C     0.61734   0.66720   0.80732   0.01267  Uiso   1.00
C130   C     0.64432   0.68594   0.92182   0.01267  Uiso   1.00
C131   C     0.50259   0.71606   0.91216   0.01267  Uiso   1.00
C132   C     0.38183   0.70706   0.88888   0.01267  Uiso   1.00
C133   C     0.27456   0.74469   0.89019   0.01267  Uiso   1.00
C134   C     0.12421   0.75579   0.87039   0.01267  Uiso   1.00
C135   C     0.55909   0.48810   0.85632   0.01267  Uiso   1.00
C136   C     0.63378   0.45020   0.87984   0.01267  Uiso   1.00
C137   C     0.79469   0.43646   0.87136   0.01267  Uiso   1.00
C138   C     0.86548   0.40207   0.89397   0.01267  Uiso   1.00
C139   C     0.77200   0.38092   0.92608   0.01267  Uiso   1.00
C140   C     0.61056   0.39545   0.93423   0.01267  Uiso   1.00
C141   C     0.54049   0.42957   0.91145   0.01267  Uiso   1.00
C142   C     0.07642   0.23871   0.01965   0.01267  Uiso   1.00
C143   C     0.99527   0.27547   0.99599   0.01267  Uiso   1.00
C144   C     0.84274   0.27541   0.98591   0.01267  Uiso   1.00
C145   C     0.77015   0.30947   0.96383   0.01267  Uiso   1.00
C146   C     0.84809   0.34477   0.95085   0.01267  Uiso   1.00
C147   C     0.00116   0.34492   0.96116   0.01267  Uiso   1.00
C148   C     0.07418   0.31063   0.98401   0.01267  Uiso   1.00
C149   C     0.92662   0.55173   0.89023   0.01267  Uiso   1.00
C150   C     0.79942   0.53959   0.92477   0.01267  Uiso   1.00
C151   C     0.83869   0.50905   0.95537   0.01267  Uiso   1.00
C152   C     0.72168   0.49436   0.98528   0.01267  Uiso   1.00
C153   C     0.56308   0.50888   0.98516   0.01267  Uiso   1.00
C154   C     0.52403   0.54066   0.95488   0.01267  Uiso   1.00
C155   C     0.64100   0.55567   0.92533   0.01267  Uiso   1.00
C156   C     0.19316   0.86409   0.58379   0.01267  Uiso   1.00
C157   C     0.29202   0.86552   0.61984   0.01267  Uiso   1.00
C158   C     0.40882   0.83474   0.63242   0.01267  Uiso   1.00
C159   C     0.46642   0.85252   0.66684   0.01267  Uiso   1.00
C160   C     0.59186   0.83280   0.69268   0.01267  Uiso   1.00
C161   C     0.75208   0.81406   0.57818   0.01267  Uiso   1.00
C162   C     0.63081   0.78394   0.58784   0.01267  Uiso   1.00
C163   C     0.47777   0.79294   0.61112   0.01267  Uiso   1.00
C164   C     0.40944   0.75531   0.60981   0.01267  Uiso   1.00
C165   C     0.25039   0.74421   0.62961   0.01267  Uiso   1.00
C166   C     0.40351   0.01190   0.64368   0.01267  Uiso   1.00
C167   C     0.46382   0.04980   0.62016   0.01267  Uiso   1.00
C168   C     0.60251   0.06354   0.62864   0.01267  Uiso   1.00
C169   C     0.66152   0.09793   0.60603   0.01267  Uiso   1.00
C170   C     0.57900   0.11908   0.57392   0.01267  Uiso   1.00
C171   C     0.44024   0.10455   0.56577   0.01267  Uiso   1.00
C172   C     0.38151   0.07043   0.58855   0.01267  Uiso   1.00
C173   C     0.83478   0.26129   0.48035   0.01267  Uiso   1.00
C174   C     0.76673   0.22453   0.50401   0.01267  Uiso   1.00
C175   C     0.60406   0.22459   0.51409   0.01267  Uiso   1.00
C176   C     0.54345   0.19053   0.53617   0.01267  Uiso   1.00
C177   C     0.64371   0.15523   0.54915   0.01267  Uiso   1.00
C178   C     0.80724   0.15508   0.53884   0.01267  Uiso   1.00
C179   C     0.86882   0.18937   0.51599   0.01267  Uiso   1.00
C180   C     0.86858   0.94827   0.60977   0.01267  Uiso   1.00
C181   C     0.76378   0.96041   0.57523   0.01267  Uiso   1.00
C182   C     0.80311   0.99095   0.54463   0.01267  Uiso   1.00
C183   C     0.70132   0.00564   0.51472   0.01267  Uiso   1.00
C184   C     0.55712   0.99112   0.51484   0.01267  Uiso   1.00
C185   C     0.51957   0.95934   0.54512   0.01267  Uiso   1.00
C186   C     0.62200   0.94433   0.57467   0.01267  Uiso   1.00
C187   C     0.05725   0.08379   0.13591   0.01267  Uiso   1.00
C188   C     0.15754   0.11984   0.13448   0.01267  Uiso   1.00
C189   C     0.24356   0.13242   0.16526   0.01267  Uiso   1.00
C190   C     0.31894   0.16684   0.14748   0.01267  Uiso   1.00
C191   C     0.42466   0.19268   0.16720   0.01267  Uiso   1.00
C192   C     0.56614   0.07818   0.18594   0.01267  Uiso   1.00
C193   C     0.41475   0.08784   0.21606   0.01267  Uiso   1.00
C194   C     0.27071   0.11112   0.20706   0.01267  Uiso   1.00
C195   C     0.16475   0.10981   0.24469   0.01267  Uiso   1.00
C196   C     0.99460   0.12961   0.25579   0.01267  Uiso   1.00
C197   C     0.41541   0.14368   0.98810   0.01267  Uiso   1.00
C198   C     0.51362   0.12016   0.95020   0.01267  Uiso   1.00
C199   C     0.66605   0.12864   0.93646   0.01267  Uiso   1.00
C200   C     0.75945   0.10603   0.90207   0.01267  Uiso   1.00
C201   C     0.69808   0.07392   0.88092   0.01267  Uiso   1.00
C202   C     0.54479   0.06577   0.89545   0.01267  Uiso   1.00
C203   C     0.45194   0.08855   0.92957   0.01267  Uiso   1.00
C204   C     0.09607   0.98035   0.73871   0.01267  Uiso   1.00
C205   C     0.99126   0.00401   0.77547   0.01267  Uiso   1.00
C206   C     0.82865   0.01409   0.77541   0.01267  Uiso   1.00
C207   C     0.73398   0.03617   0.80947   0.01267  Uiso   1.00
C208   C     0.79894   0.04915   0.84477   0.01267  Uiso   1.00
C209   C     0.96232   0.03884   0.84492   0.01267  Uiso   1.00
C210   C     0.05819   0.01599   0.81063   0.01267  Uiso   1.00
C211   C     0.81685   0.10977   0.05173   0.01267  Uiso   1.00
C212   C     0.72419   0.07523   0.03959   0.01267  Uiso   1.00
C213   C     0.79406   0.04463   0.00905   0.01267  Uiso   1.00
C214   C     0.70696   0.01472   0.99436   0.01267  Uiso   1.00
C215   C     0.54824   0.01484   0.00888   0.01267  Uiso   1.00
C216   C     0.47891   0.04512   0.04066   0.01267  Uiso   1.00
C217   C     0.56633   0.07467   0.05567   0.01267  Uiso   1.00
C218   C     0.77695   0.41621   0.36409   0.01267  Uiso   1.00
C219   C     0.91186   0.38016   0.36552   0.01267  Uiso   1.00
C220   C     0.04124   0.36758   0.33474   0.01267  Uiso   1.00
C221   C     0.13326   0.33316   0.35252   0.01267  Uiso   1.00
C222   C     0.28454   0.30732   0.33280   0.01267  Uiso   1.00
C223   C     0.33026   0.42182   0.31406   0.01267  Uiso   1.00
C224   C     0.21865   0.41216   0.28394   0.01267  Uiso   1.00
C225   C     0.08889   0.38888   0.29294   0.01267  Uiso   1.00
C226   C     0.01925   0.39019   0.25531   0.01267  Uiso   1.00
C227   C     0.88000   0.37039   0.24421   0.01267  Uiso   1.00
C228   C     0.04719   0.35632   0.51190   0.01267  Uiso   1.00
C229   C     0.08398   0.37984   0.54980   0.01267  Uiso   1.00
C230   C     0.23115   0.37136   0.56354   0.01267  Uiso   1.00
C231   C     0.26755   0.39397   0.59793   0.01267  Uiso   1.00
C232   C     0.15292   0.42608   0.61908   0.01267  Uiso   1.00
C233   C     0.00601   0.43423   0.60455   0.01267  Uiso   1.00
C234   C     0.97006   0.41145   0.57043   0.01267  Uiso   1.00
C235   C     0.31513   0.51965   0.76129   0.01267  Uiso   1.00
C236   C     0.27074   0.49599   0.72453   0.01267  Uiso   1.00
C237   C     0.11815   0.48591   0.72459   0.01267  Uiso   1.00
C238   C     0.07962   0.46383   0.69053   0.01267  Uiso   1.00
C239   C     0.19286   0.45085   0.65523   0.01267  Uiso   1.00
C240   C     0.34608   0.46116   0.65508   0.01267  Uiso   1.00
C241   C     0.38481   0.48401   0.68937   0.01267  Uiso   1.00
C242   C     0.47835   0.39023   0.44827   0.01267  Uiso   1.00
C243   C     0.33901   0.42477   0.46041   0.01267  Uiso   1.00
C244   C     0.34774   0.45537   0.49095   0.01267  Uiso   1.00
C245   C     0.21604   0.48528   0.50564   0.01267  Uiso   1.00
C246   C     0.07196   0.48516   0.49112   0.01267  Uiso   1.00
C247   C     0.06469   0.45488   0.45934   0.01267  Uiso   1.00
C248   C     0.19667   0.42533   0.44433   0.01267  Uiso   1.00
N1     N     0.67724   0.40057   0.14535   0.01267  Uiso   1.00
N2     N     0.54652   0.39258   0.17438   0.01267  Uiso   1.00
N3     N     0.52805   0.24308   0.07322   0.01267  Uiso   1.00
N4     N     0.66895   0.22652   0.08698   0.01267  Uiso   1.00
N5     N     0.72316   0.09943   0.35465   0.01267  Uiso   1.00
N6     N     0.61348   0.10742   0.32562   0.01267  Uiso   1.00
N7     N     0.34435   0.25692   0.42678   0.01267  Uiso   1.00
N8     N     0.48245   0.27348   0.41302   0.01267  Uiso   1.00
N9     N     0.82259   0.85465   0.90057   0.01267  Uiso   1.00
N10    N     0.72090   0.82562   0.89258   0.01267  Uiso   1.00
N11    N     0.60127   0.92678   0.74308   0.01267  Uiso   1.00
N12    N     0.75593   0.91302   0.72652   0.01267  Uiso   1.00
N13    N     0.07781   0.64535   0.59943   0.01267  Uiso   1.00
N14    N     0.93910   0.67438   0.60742   0.01267  Uiso   1.00
N15    N     0.77113   0.57322   0.75692   0.01267  Uiso   1.00
N16    N     0.89547   0.58698   0.77348   0.01267  Uiso   1.00
N17    N     0.32276   0.59943   0.85465   0.01267  Uiso   1.00
N18    N     0.45348   0.60742   0.82562   0.01267  Uiso   1.00
N19    N     0.47195   0.75692   0.92678   0.01267  Uiso   1.00
N20    N     0.33105   0.77348   0.91302   0.01267  Uiso   1.00
N21    N     0.27684   0.90057   0.64535   0.01267  Uiso   1.00
N22    N     0.38652   0.89258   0.67438   0.01267  Uiso   1.00
N23    N     0.65565   0.74308   0.57322   0.01267  Uiso   1.00
N24    N     0.51755   0.72652   0.58698   0.01267  Uiso   1.00
N25    N     0.17741   0.14535   0.09943   0.01267  Uiso   1.00
N26    N     0.27910   0.17438   0.10742   0.01267  Uiso   1.00
N27    N     0.39873   0.07322   0.25692   0.01267  Uiso   1.00
N28    N     0.24407   0.08698   0.27348   0.01267  Uiso   1.00
N29    N     0.92219   0.35465   0.40057   0.01267  Uiso   1.00
N30    N     0.06090   0.32562   0.39258   0.01267  Uiso   1.00
N31    N     0.22887   0.42678   0.24308   0.01267  Uiso   1.00
N32    N     0.10453   0.41302   0.22652   0.01267  Uiso   1.00
O1     O     0.59072   0.50248   0.13548   0.01267  Uiso   1.00
O2     O     0.35014   0.49179   0.16973   0.01267  Uiso   1.00
O3     O     0.79142   0.75664   0.96932   0.01267  Uiso   1.00
O4     O     0.99602   0.79364   0.97232   0.01267  Uiso   1.00
O5     O     0.93241   0.46671   0.10667   0.01267  Uiso   1.00
O6     O     0.10928   0.42206   0.13838   0.01267  Uiso   1.00
O7     O     0.72868   0.99752   0.36452   0.01267  Uiso   1.00
O8     O     0.51166   0.00821   0.33027   0.01267  Uiso   1.00
O9     O     0.01738   0.74336   0.53068   0.01267  Uiso   1.00
O10    O     0.26198   0.70636   0.52768   0.01267  Uiso   1.00
O11    O     0.00579   0.03329   0.39333   0.01267  Uiso   1.00
O12    O     0.16972   0.07794   0.36162   0.01267  Uiso   1.00
O13    O     0.72620   0.86452   0.00248   0.01267  Uiso   1.00
O14    O     0.51987   0.83027   0.99179   0.01267  Uiso   1.00
O15    O     0.76074   0.03068   0.25664   0.01267  Uiso   1.00
O16    O     0.96834   0.02768   0.29364   0.01267  Uiso   1.00
O17    O     0.03908   0.89333   0.96671   0.01267  Uiso   1.00
O18    O     0.24766   0.86162   0.92206   0.01267  Uiso   1.00
O19    O     0.09320   0.63548   0.49752   0.01267  Uiso   1.00
O20    O     0.84193   0.66973   0.50821   0.01267  Uiso   1.00
O21    O     0.54806   0.46932   0.24336   0.01267  Uiso   1.00
O22    O     0.78966   0.47232   0.20636   0.01267  Uiso   1.00
O23    O     0.39912   0.60667   0.53329   0.01267  Uiso   1.00
O24    O     0.53134   0.63838   0.57794   0.01267  Uiso   1.00
O25    O     0.40928   0.49752   0.86452   0.01267  Uiso   1.00
O26    O     0.64986   0.50821   0.83027   0.01267  Uiso   1.00
O27    O     0.20858   0.24336   0.03068   0.01267  Uiso   1.00
O28    O     0.00398   0.20636   0.02768   0.01267  Uiso   1.00
O29    O     0.06759   0.53329   0.89333   0.01267  Uiso   1.00
O30    O     0.89072   0.57794   0.86162   0.01267  Uiso   1.00
O31    O     0.27132   0.00248   0.63548   0.01267  Uiso   1.00
O32    O     0.48834   0.99179   0.66973   0.01267  Uiso   1.00
O33    O     0.98262   0.25664   0.46932   0.01267  Uiso   1.00
O34    O     0.73802   0.29364   0.47232   0.01267  Uiso   1.00
O35    O     0.99421   0.96671   0.60667   0.01267  Uiso   1.00
O36    O     0.83028   0.92206   0.63838   0.01267  Uiso   1.00
O37    O     0.27380   0.13548   0.99752   0.01267  Uiso   1.00
O38    O     0.48013   0.16973   0.00821   0.01267  Uiso   1.00
O39    O     0.23926   0.96932   0.74336   0.01267  Uiso   1.00
O40    O     0.03166   0.97232   0.70636   0.01267  Uiso   1.00
O41    O     0.96092   0.10667   0.03329   0.01267  Uiso   1.00
O42    O     0.75234   0.13838   0.07794   0.01267  Uiso   1.00
O43    O     0.90680   0.36452   0.50248   0.01267  Uiso   1.00
O44    O     0.15807   0.33027   0.49179   0.01267  Uiso   1.00
O45    O     0.45194   0.53068   0.75664   0.01267  Uiso   1.00
O46    O     0.21034   0.52768   0.79364   0.01267  Uiso   1.00
O47    O     0.60088   0.39333   0.46671   0.01267  Uiso   1.00
O48    O     0.46866   0.36162   0.42206   0.01267  Uiso   1.00
