data_IDIWOH01_clean
_audit_creation_date              2014-07-02
_audit_creation_method            'Materials Studio'
_symmetry_space_group_name_H-M    'P1'
_symmetry_Int_Tables_number       1
_symmetry_cell_setting            triclinic
loop_
_symmetry_equiv_pos_as_xyz
  x,y,z
_cell_length_a                    6.8249
_cell_length_b                    13.9951
_cell_length_c                    16.0730
_cell_angle_alpha                 90.0000
_cell_angle_beta                  90.0000
_cell_angle_gamma                 90.0000
loop_
_atom_site_label
_atom_site_type_symbol
_atom_site_fract_x
_atom_site_fract_y
_atom_site_fract_z
_atom_site_U_iso_or_equiv
_atom_site_adp_type
_atom_site_occupancy
V1     V     0.81450   0.23612   0.75000   0.01267  Uiso   1.00
V2     V     0.68550   0.73612   0.25000   0.01267  Uiso   1.00
V3     V     0.18550   0.76388   0.25000   0.01267  Uiso   1.00
V4     V     0.31450   0.26388   0.75000   0.01267  Uiso   1.00
H1     H     0.21890   0.06640   0.55470   0.01267  Uiso   1.00
H2     H     0.80230   0.04090   0.55360   0.01267  Uiso   1.00
H3     H     0.28110   0.56640   0.44530   0.01267  Uiso   1.00
H4     H     0.69770   0.54090   0.44640   0.01267  Uiso   1.00
H5     H     0.78110   0.93360   0.05470   0.01267  Uiso   1.00
H6     H     0.19770   0.95910   0.05360   0.01267  Uiso   1.00
H7     H     0.71890   0.43360   0.94530   0.01267  Uiso   1.00
H8     H     0.30230   0.45910   0.94640   0.01267  Uiso   1.00
H9     H     0.78110   0.93360   0.44530   0.01267  Uiso   1.00
H10    H     0.19770   0.95910   0.44640   0.01267  Uiso   1.00
H11    H     0.71890   0.43360   0.55470   0.01267  Uiso   1.00
H12    H     0.30230   0.45910   0.55360   0.01267  Uiso   1.00
H13    H     0.21890   0.06640   0.94530   0.01267  Uiso   1.00
H14    H     0.80230   0.04090   0.94640   0.01267  Uiso   1.00
H15    H     0.28110   0.56640   0.05470   0.01267  Uiso   1.00
H16    H     0.69770   0.54090   0.05360   0.01267  Uiso   1.00
C1     C     0.52510   0.13416   0.63564   0.01267  Uiso   1.00
C2     C     0.51230   0.06478   0.56517   0.01267  Uiso   1.00
C3     C     0.33240   0.03975   0.53271   0.01267  Uiso   1.00
C4     C     0.68030   0.02454   0.53206   0.01267  Uiso   1.00
C5     C     0.97490   0.63416   0.36436   0.01267  Uiso   1.00
C6     C     0.98770   0.56478   0.43483   0.01267  Uiso   1.00
C7     C     0.16760   0.53975   0.46729   0.01267  Uiso   1.00
C8     C     0.81970   0.52454   0.46794   0.01267  Uiso   1.00
C9     C     0.47490   0.86584   0.13564   0.01267  Uiso   1.00
C10    C     0.48770   0.93522   0.06517   0.01267  Uiso   1.00
C11    C     0.66760   0.96025   0.03271   0.01267  Uiso   1.00
C12    C     0.31970   0.97546   0.03206   0.01267  Uiso   1.00
C13    C     0.02510   0.36584   0.86436   0.01267  Uiso   1.00
C14    C     0.01230   0.43522   0.93483   0.01267  Uiso   1.00
C15    C     0.83240   0.46025   0.96729   0.01267  Uiso   1.00
C16    C     0.18030   0.47546   0.96794   0.01267  Uiso   1.00
C17    C     0.47490   0.86584   0.36436   0.01267  Uiso   1.00
C18    C     0.48770   0.93522   0.43483   0.01267  Uiso   1.00
C19    C     0.66760   0.96025   0.46729   0.01267  Uiso   1.00
C20    C     0.31970   0.97546   0.46794   0.01267  Uiso   1.00
C21    C     0.02510   0.36584   0.63564   0.01267  Uiso   1.00
C22    C     0.01230   0.43522   0.56517   0.01267  Uiso   1.00
C23    C     0.83240   0.46025   0.53271   0.01267  Uiso   1.00
C24    C     0.18030   0.47546   0.53206   0.01267  Uiso   1.00
C25    C     0.52510   0.13416   0.86436   0.01267  Uiso   1.00
C26    C     0.51230   0.06478   0.93483   0.01267  Uiso   1.00
C27    C     0.33240   0.03975   0.96729   0.01267  Uiso   1.00
C28    C     0.68030   0.02454   0.96794   0.01267  Uiso   1.00
C29    C     0.97490   0.63416   0.13564   0.01267  Uiso   1.00
C30    C     0.98770   0.56478   0.06517   0.01267  Uiso   1.00
C31    C     0.16760   0.53975   0.03271   0.01267  Uiso   1.00
C32    C     0.81970   0.52454   0.03206   0.01267  Uiso   1.00
O1     O     0.69280   0.15438   0.66255   0.01267  Uiso   1.00
O2     O     0.36591   0.16790   0.66230   0.01267  Uiso   1.00
O3     O     0.80720   0.65438   0.33745   0.01267  Uiso   1.00
O4     O     0.13409   0.66790   0.33770   0.01267  Uiso   1.00
O5     O     0.30720   0.84562   0.16255   0.01267  Uiso   1.00
O6     O     0.63409   0.83210   0.16230   0.01267  Uiso   1.00
O7     O     0.19280   0.34562   0.83745   0.01267  Uiso   1.00
O8     O     0.86591   0.33210   0.83770   0.01267  Uiso   1.00
O9     O     0.30720   0.84562   0.33745   0.01267  Uiso   1.00
O10    O     0.63409   0.83210   0.33770   0.01267  Uiso   1.00
O11    O     0.19280   0.34562   0.66255   0.01267  Uiso   1.00
O12    O     0.86591   0.33210   0.66230   0.01267  Uiso   1.00
O13    O     0.69280   0.15438   0.83745   0.01267  Uiso   1.00
O14    O     0.36591   0.16790   0.83770   0.01267  Uiso   1.00
O15    O     0.80720   0.65438   0.16255   0.01267  Uiso   1.00
O16    O     0.13409   0.66790   0.16230   0.01267  Uiso   1.00
O17    O     0.53130   0.30951   0.75000   0.01267  Uiso   1.00
O18    O     0.96870   0.80951   0.25000   0.01267  Uiso   1.00
O19    O     0.46870   0.69049   0.25000   0.01267  Uiso   1.00
O20    O     0.03130   0.19049   0.75000   0.01267  Uiso   1.00
