data_IDIWOH03_clean
_audit_creation_date              2015-10-16
_audit_creation_method            'Materials Studio'
_symmetry_space_group_name_H-M    'P1'
_symmetry_Int_Tables_number       1
_symmetry_cell_setting            triclinic
loop_
_symmetry_equiv_pos_as_xyz
  x,y,z
_cell_length_a                    6.8512
_cell_length_b                    11.2496
_cell_length_c                    11.2511
_cell_angle_alpha                 76.3976
_cell_angle_beta                  72.3190
_cell_angle_gamma                 72.3423
loop_
_atom_site_label
_atom_site_type_symbol
_atom_site_fract_x
_atom_site_fract_y
_atom_site_fract_z
_atom_site_U_iso_or_equiv
_atom_site_adp_type
_atom_site_occupancy
C1     C     0.71244   0.43356   0.50424   0.01267  Uiso   1.00
C2     C     0.64639   0.56309   0.50579   0.01267  Uiso   1.00
C3     C     0.79755   0.99374   0.06414   0.01267  Uiso   1.00
C4     C     0.43847   0.62900   0.50068   0.01267  Uiso   1.00
C5     C     0.21250   0.00419   0.93347   0.01267  Uiso   1.00
C6     C     0.07147   0.99695   0.86883   0.01267  Uiso   1.00
C7     C     0.13905   0.99553   0.73028   0.01267  Uiso   1.00
C8     C     0.36386   0.43505   0.49134   0.01267  Uiso   1.00
C9     C     0.86374   0.99150   0.93506   0.01267  Uiso   1.00
C10    C     0.93851   0.00073   0.12896   0.01267  Uiso   1.00
C11    C     0.63916   0.23033   0.49547   0.01267  Uiso   1.00
C12    C     0.14650   0.00574   0.06298   0.01267  Uiso   1.00
C13    C     0.86513   0.00236   0.26747   0.01267  Uiso   1.00
C14    C     0.29763   0.56414   0.49357   0.01267  Uiso   1.00
C15    C     0.36503   0.76752   0.50232   0.01267  Uiso   1.00
C16    C     0.57152   0.36888   0.49688   0.01267  Uiso   1.00
H1     H     0.75325   0.61502   0.51148   0.01267  Uiso   1.00
H2     H     0.37292   0.00856   0.88045   0.01267  Uiso   1.00
H3     H     0.75687   0.98552   0.88336   0.01267  Uiso   1.00
H4     H     0.25709   0.38332   0.48526   0.01267  Uiso   1.00
H5     H     0.13708   0.61692   0.48956   0.01267  Uiso   1.00
H6     H     0.25345   0.01133   0.11488   0.01267  Uiso   1.00
H7     H     0.63696   0.98979   0.11696   0.01267  Uiso   1.00
H8     H     0.87279   0.38060   0.50870   0.01267  Uiso   1.00
O1     O     0.67003   0.00589   0.31873   0.01267  Uiso   1.00
O2     O     0.32836   0.00254   0.67218   0.01267  Uiso   1.00
O3     O     0.00128   0.99966   0.32537   0.01267  Uiso   1.00
O4     O     0.74471   0.94449   0.55321   0.01267  Uiso   1.00
O5     O     0.16997   0.81873   0.50584   0.01267  Uiso   1.00
O6     O     0.50118   0.82545   0.49965   0.01267  Uiso   1.00
O7     O     0.50156   0.17913   0.48768   0.01267  Uiso   1.00
O8     O     0.82839   0.17226   0.50250   0.01267  Uiso   1.00
O9     O     0.24480   0.05321   0.44447   0.01267  Uiso   1.00
O10    O     0.00146   0.98775   0.67912   0.01267  Uiso   1.00
V1     V     0.96961   0.98796   0.50988   0.01267  Uiso   1.00
V2     V     0.46965   0.00991   0.48792   0.01267  Uiso   1.00
