data_ja204757x_si_002_clean
_audit_creation_date              2015-10-29
_audit_creation_method            'Materials Studio'
_symmetry_space_group_name_H-M    'P1'
_symmetry_Int_Tables_number       1
_symmetry_cell_setting            triclinic
loop_
_symmetry_equiv_pos_as_xyz
  x,y,z
_cell_length_a                    14.7480
_cell_length_b                    14.7478
_cell_length_c                    14.7478
_cell_angle_alpha                 109.4710
_cell_angle_beta                  109.4710
_cell_angle_gamma                 109.4710
loop_
_atom_site_label
_atom_site_type_symbol
_atom_site_fract_x
_atom_site_fract_y
_atom_site_fract_z
_atom_site_U_iso_or_equiv
_atom_site_adp_type
_atom_site_occupancy
Zn1    Zn    0.75000   0.50000   0.25000   0.01267  Uiso   1.00
Zn2    Zn    0.25000   0.50000   0.75000   0.01267  Uiso   1.00
Zn3    Zn    0.50000   0.75000   0.25000   0.01267  Uiso   1.00
Zn4    Zn    0.75000   0.25000   0.50000   0.01267  Uiso   1.00
Zn5    Zn    0.50000   0.25000   0.75000   0.01267  Uiso   1.00
Zn6    Zn    0.25000   0.75000   0.50000   0.01267  Uiso   1.00
C7     C     0.61505   0.24590   0.61505   0.01267  Uiso   1.00
C8     C     0.00000   0.67940   0.49160   0.01267  Uiso   1.00
C9     C     0.78836   0.31899   0.73235   0.01267  Uiso   1.00
C10    C     0.53063   0.21164   0.94399   0.01267  Uiso   1.00
C11    C     0.63085   0.38495  -0.00000   0.01267  Uiso   1.00
C12    C     0.18780   0.50840   0.50840   0.01267  Uiso   1.00
C13    C     0.50840   0.18780   0.50840   0.01267  Uiso   1.00
C14    C     0.75410   0.36915   0.36915   0.01267  Uiso   1.00
C15    C     0.24590   0.61505   0.61505   0.01267  Uiso   1.00
C16    C     0.05601   0.58664   0.26765   0.01267  Uiso   1.00
C17    C     0.73235   0.31899   0.78836   0.01267  Uiso   1.00
C18    C     0.78836   0.73235   0.31899   0.01267  Uiso   1.00
C19    C     0.67940   0.49160   0.00000   0.01267  Uiso   1.00
C20    C     0.26765   0.58664   0.05601   0.01267  Uiso   1.00
C21    C     0.31899   0.78836   0.73235   0.01267  Uiso   1.00
C22    C     0.41336   0.46937   0.68101   0.01267  Uiso   1.00
C23    C     0.36915   0.36915   0.75410   0.01267  Uiso   1.00
C24    C     0.67940   0.00000   0.49160   0.01267  Uiso   1.00
C25    C     0.31899   0.73235   0.78836   0.01267  Uiso   1.00
C26    C     0.38495   0.00000   0.63085   0.01267  Uiso   1.00
C27    C     0.50840   0.50840   0.18780   0.01267  Uiso   1.00
C28    C     0.68101   0.46937   0.41336   0.01267  Uiso   1.00
C29    C     0.36915   0.75410   0.36915   0.01267  Uiso   1.00
C30    C     0.49160  -0.00000   0.67940   0.01267  Uiso   1.00
C31    C     0.32060   0.81220   0.32060   0.01267  Uiso   1.00
C32    C     0.38495   0.63085  -0.00000   0.01267  Uiso   1.00
C33    C     0.58664   0.05601   0.26765   0.01267  Uiso   1.00
C34    C     0.00000   0.63085   0.38495   0.01267  Uiso   1.00
C35    C     0.49160   0.67940  -0.00000   0.01267  Uiso   1.00
C36    C     0.61505   0.61505   0.24590   0.01267  Uiso   1.00
C37    C     0.58664   0.26765   0.05601   0.01267  Uiso   1.00
C38    C     0.32060   0.32060   0.81220   0.01267  Uiso   1.00
C39    C     0.00000   0.38495   0.63085   0.01267  Uiso   1.00
C40    C     0.73235   0.78836   0.31899   0.01267  Uiso   1.00
C41    C     0.21164   0.53063   0.94399   0.01267  Uiso   1.00
C42    C     0.63085   0.00000   0.38495   0.01267  Uiso   1.00
C43    C     0.00000   0.49160   0.67940   0.01267  Uiso   1.00
C44    C     0.68101   0.41336   0.46937   0.01267  Uiso   1.00
C45    C     0.94399   0.21164   0.53063   0.01267  Uiso   1.00
C46    C     0.46937   0.68101   0.41336   0.01267  Uiso   1.00
C47    C     0.21164   0.94399   0.53063   0.01267  Uiso   1.00
C48    C     0.26765   0.05601   0.58664   0.01267  Uiso   1.00
C49    C     0.46937   0.41336   0.68101   0.01267  Uiso   1.00
C50    C     0.53063   0.94399   0.21164   0.01267  Uiso   1.00
C51    C     0.94399   0.53063   0.21164   0.01267  Uiso   1.00
C52    C     0.81220   0.32060   0.32060   0.01267  Uiso   1.00
C53    C     0.05601   0.26765   0.58664   0.01267  Uiso   1.00
C54    C     0.41336   0.68101   0.46937   0.01267  Uiso   1.00
N55    N     0.37805   0.65110   0.09251   0.01267  Uiso   1.00
N56    N     0.62195   0.71446   0.27305   0.01267  Uiso   1.00
N57    N     0.62195   0.27305   0.71446   0.01267  Uiso   1.00
N58    N     0.71446   0.27305   0.62195   0.01267  Uiso   1.00
N59    N     0.55859   0.90749   0.28554   0.01267  Uiso   1.00
N60    N     0.44141   0.72695   0.34890   0.01267  Uiso   1.00
N61    N     0.71446   0.62195   0.27305   0.01267  Uiso   1.00
N62    N     0.55859   0.28554   0.90749   0.01267  Uiso   1.00
N63    N     0.27305   0.71446   0.62195   0.01267  Uiso   1.00
N64    N     0.37805   0.09251   0.65110   0.01267  Uiso   1.00
N65    N     0.28554   0.55859   0.90749   0.01267  Uiso   1.00
N66    N     0.65110   0.37805   0.09251   0.01267  Uiso   1.00
N67    N     0.90749   0.55859   0.28554   0.01267  Uiso   1.00
N68    N     0.27305   0.62195   0.71446   0.01267  Uiso   1.00
N69    N     0.72695   0.44141   0.34890   0.01267  Uiso   1.00
N70    N     0.09251   0.65110   0.37805   0.01267  Uiso   1.00
N71    N     0.09251   0.37805   0.65110   0.01267  Uiso   1.00
N72    N     0.72695   0.34890   0.44141   0.01267  Uiso   1.00
N73    N     0.44141   0.34890   0.72695   0.01267  Uiso   1.00
N74    N     0.34890   0.72695   0.44141   0.01267  Uiso   1.00
N75    N     0.65110   0.09251   0.37805   0.01267  Uiso   1.00
N76    N     0.28554   0.90749   0.55859   0.01267  Uiso   1.00
N77    N     0.90749   0.28554   0.55859   0.01267  Uiso   1.00
N78    N     0.34890   0.44141   0.72695   0.01267  Uiso   1.00
H79    H    -0.08881   0.65418   0.47331   0.00000  Uiso   1.00
H80    H     0.05209   0.77379   0.53670   0.00000  Uiso   1.00
H81    H     0.03673   0.64724   0.54610   0.00000  Uiso   1.00
H82    H     0.88193   0.35384   0.77858   0.00000  Uiso   1.00
H83    H     0.47191   0.11807   0.89666   0.00000  Uiso   1.00
H84    H     0.21782   0.45018   0.52366   0.00000  Uiso   1.00
H85    H     0.20688   0.52586   0.44524   0.00000  Uiso   1.00
H86    H     0.09440   0.46785   0.47499   0.00000  Uiso   1.00
H87    H     0.10335   0.57525   0.22142   0.00000  Uiso   1.00
H88    H     0.77858   0.35384   0.88193   0.00000  Uiso   1.00
H89    H     0.88193   0.77858   0.35384   0.00000  Uiso   1.00
H90    H     0.64716   0.47407  -0.08926   0.00000  Uiso   1.00
H91    H     0.77379   0.53247   0.04468   0.00000  Uiso   1.00
H92    H     0.65427   0.54958   0.04457   0.00000  Uiso   1.00
H93    H     0.22142   0.57526   0.10335   0.00000  Uiso   1.00
H94    H     0.35384   0.88193   0.77858   0.00000  Uiso   1.00
H95    H     0.42474   0.52809   0.64616   0.00000  Uiso   1.00
H96    H     0.76510   0.07702   0.55221   0.00000  Uiso   1.00
H97    H     0.68707  -0.07757   0.47501   0.00000  Uiso   1.00
H98    H     0.62304   0.00055   0.52889   0.00000  Uiso   1.00
H99    H     0.35384   0.77858   0.88193   0.00000  Uiso   1.00
H100   H     0.52687   0.44150   0.19605   0.00000  Uiso   1.00
H101   H     0.46158   0.48171   0.09618   0.00000  Uiso   1.00
H102   H     0.45544   0.52068   0.22687   0.00000  Uiso   1.00
H103   H     0.64616   0.52809   0.42474   0.00000  Uiso   1.00
H104   H     0.53842   0.02013   0.63461   0.00000  Uiso   1.00
H105   H     0.47313  -0.08537   0.66918   0.00000  Uiso   1.00
H106   H     0.54456   0.06524   0.77143   0.00000  Uiso   1.00
H107   H     0.22621   0.75868   0.27090   0.00000  Uiso   1.00
H108   H     0.35284   0.82691   0.26358   0.00000  Uiso   1.00
H109   H     0.34573   0.89531   0.39031   0.00000  Uiso   1.00
H110   H     0.57526   0.10335   0.22142   0.00000  Uiso   1.00
H111   H     0.47700   0.69720  -0.07155   0.00000  Uiso   1.00
H112   H     0.52333   0.61802  -0.01044   0.00000  Uiso   1.00
H113   H     0.55578   0.76000   0.08199   0.00000  Uiso   1.00
H114   H     0.57526   0.22142   0.10335   0.00000  Uiso   1.00
H115   H     0.31293   0.23536   0.78794   0.00000  Uiso   1.00
H116   H     0.23490   0.31192   0.78710   0.00000  Uiso   1.00
H117   H     0.37696   0.37751   0.90585   0.00000  Uiso   1.00
H118   H     0.77858   0.88193   0.35384   0.00000  Uiso   1.00
H119   H     0.11807   0.47191   0.89666   0.00000  Uiso   1.00
H120   H    -0.08631   0.47302   0.66616   0.00000  Uiso   1.00
H121   H     0.02346   0.54000   0.63692   0.00000  Uiso   1.00
H122   H     0.06285   0.54309   0.77214   0.00000  Uiso   1.00
H123   H     0.64616   0.42474   0.52809   0.00000  Uiso   1.00
H124   H     0.89665   0.11807   0.47191   0.00000  Uiso   1.00
H125   H     0.52809   0.64616   0.42475   0.00000  Uiso   1.00
H126   H     0.11807   0.89666   0.47191   0.00000  Uiso   1.00
H127   H     0.22142   0.10335   0.57526   0.00000  Uiso   1.00
H128   H     0.52809   0.42475   0.64616   0.00000  Uiso   1.00
H129   H     0.47191   0.89666   0.11807   0.00000  Uiso   1.00
H130   H     0.89665   0.47191   0.11807   0.00000  Uiso   1.00
H131   H     0.79312   0.31898   0.23835   0.00000  Uiso   1.00
H132   H     0.78218   0.23237   0.30585   0.00000  Uiso   1.00
H133   H     0.90560   0.37344   0.38058   0.00000  Uiso   1.00
H134   H     0.10335   0.22142   0.57525   0.00000  Uiso   1.00
H135   H     0.42474   0.64616   0.52809   0.00000  Uiso   1.00
H136   H     0.47667   0.09469   0.46623   0.00000  Uiso   1.00
H137   H     0.52300   0.22020   0.45145   0.00000  Uiso   1.00
H138   H     0.44422   0.20422   0.52621   0.00000  Uiso   1.00
loop_
_geom_bond_atom_site_label_1
_geom_bond_atom_site_label_2
_geom_bond_distance
_geom_bond_site_symmetry_2
_ccdc_geom_bond_type
Zn1    N61     1.991   .     S
Zn1    N66     1.991   .     S
Zn1    N67     1.991   .     S
Zn1    N69     1.991   .     S
Zn2    N65     1.991   .     S
Zn2    N68     1.991   .     S
Zn2    N71     1.991   .     S
Zn2    N78     1.991   .     S
Zn3    N55     1.991   .     S
Zn3    N56     1.991   .     S
Zn3    N59     1.991   .     S
Zn3    N60     1.991   .     S
Zn4    N58     1.991   .     S
Zn4    N72     1.991   .     S
Zn4    N75     1.991   .     S
Zn4    N77     1.991   .     S
Zn5    N57     1.991   .     S
Zn5    N62     1.991   .     S
Zn5    N64     1.991   .     S
Zn5    N73     1.991   .     S
Zn6    N63     1.991   .     S
Zn6    N70     1.991   .     S
Zn6    N74     1.991   .     S
Zn6    N76     1.991   .     S
C7     C13     1.495   .     S
C7     N57     1.342   .     A
C7     N58     1.342   .     A
C8     C34     1.495   .     S
C8     H79     1.140   .     S
C8     H80     1.140   .     S
C8     H81     1.140   .     S
C9     C17     1.349   .     A
C9     N58     1.374   .     A
C9     H82     1.140   .     S
C10    C37     1.349   1_556 A
C10    N62     1.374   .     A
C10    H83     1.140   .     S
C11    C19     1.495   .     S
C11    N62     1.342   1_554 A
C11    N66     1.342   .     A
C12    C15     1.495   .     S
C12    H84     1.140   .     S
C12    H85     1.140   .     S
C12    H86     1.140   .     S
C13    H136    1.140   .     S
C13    H137    1.140   .     S
C13    H138    1.140   .     S
C14    C52     1.495   .     S
C14    N69     1.342   .     A
C14    N72     1.342   .     A
C15    N63     1.342   .     A
C15    N68     1.342   .     A
C16    C51     1.349   1_455 A
C16    N70     1.374   .     A
C16    H87     1.140   .     S
C17    N57     1.374   .     A
C17    H88     1.140   .     S
C18    C40     1.349   .     A
C18    N61     1.374   .     A
C18    H89     1.140   .     S
C19    H90     1.140   .     S
C19    H91     1.140   .     S
C19    H92     1.140   .     S
C20    C41     1.349   1_554 A
C20    N55     1.374   .     A
C20    H93     1.140   .     S
C21    C25     1.349   .     A
C21    N63     1.374   .     A
C21    H94     1.140   .     S
C22    C49     1.349   .     A
C22    N78     1.374   .     A
C22    H95     1.140   .     S
C23    C38     1.495   .     S
C23    N73     1.342   .     A
C23    N78     1.342   .     A
C24    C42     1.495   .     S
C24    H96     1.140   .     S
C24    H97     1.140   .     S
C24    H98     1.140   .     S
C25    N68     1.374   .     A
C25    H99     1.140   .     S
C26    C30     1.495   .     S
C26    N64     1.342   .     A
C26    N76     1.342   1_545 A
C27    C36     1.495   .     S
C27    H100    1.140   .     S
C27    H101    1.140   .     S
C27    H102    1.140   .     S
C28    C44     1.349   .     A
C28    N69     1.374   .     A
C28    H103    1.140   .     S
C29    C31     1.495   .     S
C29    N60     1.342   .     A
C29    N74     1.342   .     A
C30    H104    1.140   .     S
C30    H105    1.140   .     S
C30    H106    1.140   .     S
C31    H107    1.140   .     S
C31    H108    1.140   .     S
C31    H109    1.140   .     S
C32    C35     1.495   .     S
C32    N55     1.342   .     A
C32    N65     1.342   1_554 A
C33    C50     1.349   1_545 A
C33    N75     1.374   .     A
C33    H110    1.140   .     S
C34    N67     1.342   1_455 A
C34    N70     1.342   .     A
C35    H111    1.140   .     S
C35    H112    1.140   .     S
C35    H113    1.140   .     S
C36    N56     1.342   .     A
C36    N61     1.342   .     A
C37    C10     1.349   1_554 A
C37    N66     1.374   .     A
C37    H114    1.140   .     S
C38    H115    1.140   .     S
C38    H116    1.140   .     S
C38    H117    1.140   .     S
C39    C43     1.495   .     S
C39    N71     1.342   .     A
C39    N77     1.342   1_455 A
C40    N56     1.374   .     A
C40    H118    1.140   .     S
C41    C20     1.349   1_556 A
C41    N65     1.374   .     A
C41    H119    1.140   .     S
C42    N59     1.342   1_545 A
C42    N75     1.342   .     A
C43    H120    1.140   .     S
C43    H121    1.140   .     S
C43    H122    1.140   .     S
C44    N72     1.374   .     A
C44    H123    1.140   .     S
C45    C53     1.349   1_655 A
C45    N77     1.374   .     A
C45    H124    1.140   .     S
C46    C54     1.349   .     A
C46    N60     1.374   .     A
C46    H125    1.140   .     S
C47    C48     1.349   1_565 A
C47    N76     1.374   .     A
C47    H126    1.140   .     S
C48    C47     1.349   1_545 A
C48    N64     1.374   .     A
C48    H127    1.140   .     S
C49    N73     1.374   .     A
C49    H128    1.140   .     S
C50    C33     1.349   1_565 A
C50    N59     1.374   .     A
C50    H129    1.140   .     S
C51    C16     1.349   1_655 A
C51    N67     1.374   .     A
C51    H130    1.140   .     S
C52    H131    1.140   .     S
C52    H132    1.140   .     S
C52    H133    1.140   .     S
C53    C45     1.349   1_455 A
C53    N71     1.374   .     A
C53    H134    1.140   .     S
C54    N74     1.374   .     A
C54    H135    1.140   .     S
N59    C42     1.342   1_565 A
N62    C11     1.342   1_556 A
N65    C32     1.342   1_556 A
N67    C34     1.342   1_655 A
N76    C26     1.342   1_565 A
N77    C39     1.342   1_655 A
