data_GUXPUL_clean
_audit_creation_date              2014-07-02
_audit_creation_method            'Materials Studio'
_symmetry_space_group_name_H-M    'P1'
_symmetry_Int_Tables_number       1
_symmetry_cell_setting            triclinic
loop_
_symmetry_equiv_pos_as_xyz
  x,y,z
_cell_length_a                    8.6557
_cell_length_b                    21.7834
_cell_length_c                    21.7834
_cell_angle_alpha                 87.7378
_cell_angle_beta                  78.5404
_cell_angle_gamma                 78.5404
loop_
_atom_site_label
_atom_site_type_symbol
_atom_site_fract_x
_atom_site_fract_y
_atom_site_fract_z
_atom_site_U_iso_or_equiv
_atom_site_adp_type
_atom_site_occupancy
Zn1    Zn    0.20641   0.84201   0.63567   0.01267  Uiso   1.00
Zn2    Zn    0.18409   0.65799   0.86432   0.01267  Uiso   1.00
Zn3    Zn    0.84208   0.36432   0.34202   0.01267  Uiso   1.00
Zn4    Zn    0.04841   0.13568   0.15799   0.01267  Uiso   1.00
Zn5    Zn    0.79359   0.15799   0.36432   0.01267  Uiso   1.00
Zn6    Zn    0.81591   0.34201   0.13568   0.01267  Uiso   1.00
Zn7    Zn    0.15792   0.63568   0.65798   0.01267  Uiso   1.00
Zn8    Zn    0.95159   0.86432   0.84201   0.01267  Uiso   1.00
H1     H     0.38370   0.95800   0.57180   0.01267  Uiso   1.00
H2     H     0.14640   0.94610   0.74030   0.01267  Uiso   1.00
H3     H     0.33770   0.10990   0.64890   0.01267  Uiso   1.00
H4     H     0.46330   0.07380   0.59380   0.01267  Uiso   1.00
H5     H     0.22830   0.20050   0.59090   0.01267  Uiso   1.00
H6     H     0.18640   0.19270   0.52510   0.01267  Uiso   1.00
H7     H     0.43030   0.17630   0.43050   0.01267  Uiso   1.00
H8     H     0.76970   0.17240   0.52280   0.01267  Uiso   1.00
H9     H     0.77180   0.15320   0.71360   0.01267  Uiso   1.00
H10    H     0.80320   0.01700   0.59200   0.01267  Uiso   1.00
H11    H     0.05230   0.03440   0.54200   0.01267  Uiso   1.00
H12    H     0.87670   0.77350   0.66610   0.01267  Uiso   1.00
H13    H     0.72340   0.82450   0.68890   0.01267  Uiso   1.00
H14    H     0.26240   0.08500   0.48420   0.01267  Uiso   1.00
H15    H     0.41350   0.54200   0.92820   0.01267  Uiso   1.00
H16    H     0.33280   0.55390   0.75970   0.01267  Uiso   1.00
H17    H     0.59650   0.39010   0.85110   0.01267  Uiso   1.00
H18    H     0.63090   0.42620   0.90620   0.01267  Uiso   1.00
H19    H     0.51970   0.29950   0.90910   0.01267  Uiso   1.00
H20    H     0.40420   0.30730   0.97490   0.01267  Uiso   1.00
H21    H     0.53710   0.32370   0.06950   0.01267  Uiso   1.00
H22    H     0.96490   0.32760   0.97720   0.01267  Uiso   1.00
H23    H     0.13860   0.34680   0.78640   0.01267  Uiso   1.00
H24    H     0.91220   0.48300   0.90800   0.01267  Uiso   1.00
H25    H     0.12870   0.46560   0.95800   0.01267  Uiso   1.00
H26    H     0.81630   0.72650   0.83390   0.01267  Uiso   1.00
H27    H     0.73680   0.67550   0.81110   0.01267  Uiso   1.00
H28    H     0.33160   0.41500   0.01580   0.01267  Uiso   1.00
H29    H     0.95550   0.42820   0.45800   0.01267  Uiso   1.00
H30    H     0.88670   0.25970   0.44610   0.01267  Uiso   1.00
H31    H     0.98660   0.35110   0.60990   0.01267  Uiso   1.00
H32    H     0.05710   0.40620   0.57380   0.01267  Uiso   1.00
H33    H     0.81920   0.40910   0.70050   0.01267  Uiso   1.00
H34    H     0.71150   0.47490   0.69270   0.01267  Uiso   1.00
H35    H     0.86080   0.56950   0.67630   0.01267  Uiso   1.00
H36    H     0.29250   0.47720   0.67240   0.01267  Uiso   1.00
H37    H     0.48540   0.28640   0.65320   0.01267  Uiso   1.00
H38    H     0.39520   0.40800   0.51700   0.01267  Uiso   1.00
H39    H     0.59430   0.45800   0.53440   0.01267  Uiso   1.00
H40    H     0.54280   0.33390   0.27350   0.01267  Uiso   1.00
H41    H     0.41230   0.31110   0.32450   0.01267  Uiso   1.00
H42    H     0.74660   0.51580   0.58500   0.01267  Uiso   1.00
H43    H     0.34170   0.07180   0.04200   0.01267  Uiso   1.00
H44    H     0.09250   0.24030   0.05390   0.01267  Uiso   1.00
H45    H     0.44760   0.14890   0.89010   0.01267  Uiso   1.00
H46    H     0.53710   0.09380   0.92620   0.01267  Uiso   1.00
H47    H     0.42880   0.09090   0.79950   0.01267  Uiso   1.00
H48    H     0.37910   0.02510   0.80730   0.01267  Uiso   1.00
H49    H     0.60660   0.93050   0.82370   0.01267  Uiso   1.00
H50    H     0.94210   0.02280   0.82760   0.01267  Uiso   1.00
H51    H     0.92500   0.21360   0.84680   0.01267  Uiso   1.00
H52    H     0.82020   0.09200   0.98300   0.01267  Uiso   1.00
H53    H     0.08670   0.04200   0.96560   0.01267  Uiso   1.00
H54    H     0.65020   0.16610   0.22650   0.01267  Uiso   1.00
H55    H     0.54790   0.18890   0.17550   0.01267  Uiso   1.00
H56    H     0.34740   0.98420   0.91500   0.01267  Uiso   1.00
H57    H     0.61630   0.04200   0.42820   0.01267  Uiso   1.00
H58    H     0.85360   0.05390   0.25970   0.01267  Uiso   1.00
H59    H     0.66230   0.89010   0.35110   0.01267  Uiso   1.00
H60    H     0.53670   0.92620   0.40620   0.01267  Uiso   1.00
H61    H     0.77170   0.79950   0.40910   0.01267  Uiso   1.00
H62    H     0.81360   0.80730   0.47490   0.01267  Uiso   1.00
H63    H     0.56970   0.82370   0.56950   0.01267  Uiso   1.00
H64    H     0.23030   0.82760   0.47720   0.01267  Uiso   1.00
H65    H     0.22820   0.84680   0.28640   0.01267  Uiso   1.00
H66    H     0.19680   0.98300   0.40800   0.01267  Uiso   1.00
H67    H     0.94770   0.96560   0.45800   0.01267  Uiso   1.00
H68    H     0.12330   0.22650   0.33390   0.01267  Uiso   1.00
H69    H     0.27660   0.17550   0.31110   0.01267  Uiso   1.00
H70    H     0.73760   0.91500   0.51580   0.01267  Uiso   1.00
H71    H     0.58650   0.45800   0.07180   0.01267  Uiso   1.00
H72    H     0.66720   0.44610   0.24030   0.01267  Uiso   1.00
H73    H     0.40350   0.60990   0.14890   0.01267  Uiso   1.00
H74    H     0.36910   0.57380   0.09380   0.01267  Uiso   1.00
H75    H     0.48030   0.70050   0.09090   0.01267  Uiso   1.00
H76    H     0.59580   0.69270   0.02510   0.01267  Uiso   1.00
H77    H     0.46290   0.67630   0.93050   0.01267  Uiso   1.00
H78    H     0.03510   0.67240   0.02280   0.01267  Uiso   1.00
H79    H     0.86140   0.65320   0.21360   0.01267  Uiso   1.00
H80    H     0.08780   0.51700   0.09200   0.01267  Uiso   1.00
H81    H     0.87130   0.53440   0.04200   0.01267  Uiso   1.00
H82    H     0.18370   0.27350   0.16610   0.01267  Uiso   1.00
H83    H     0.26320   0.32450   0.18890   0.01267  Uiso   1.00
H84    H     0.66840   0.58500   0.98420   0.01267  Uiso   1.00
H85    H     0.04450   0.57180   0.54200   0.01267  Uiso   1.00
H86    H     0.11330   0.74030   0.55390   0.01267  Uiso   1.00
H87    H     0.01340   0.64890   0.39010   0.01267  Uiso   1.00
H88    H     0.94290   0.59380   0.42620   0.01267  Uiso   1.00
H89    H     0.18080   0.59090   0.29950   0.01267  Uiso   1.00
H90    H     0.28850   0.52510   0.30730   0.01267  Uiso   1.00
H91    H     0.13920   0.43050   0.32370   0.01267  Uiso   1.00
H92    H     0.70750   0.52280   0.32760   0.01267  Uiso   1.00
H93    H     0.51460   0.71360   0.34680   0.01267  Uiso   1.00
H94    H     0.60480   0.59200   0.48300   0.01267  Uiso   1.00
H95    H     0.40570   0.54200   0.46560   0.01267  Uiso   1.00
H96    H     0.45720   0.66610   0.72650   0.01267  Uiso   1.00
H97    H     0.58770   0.68890   0.67550   0.01267  Uiso   1.00
H98    H     0.25340   0.48420   0.41500   0.01267  Uiso   1.00
H99    H     0.65830   0.92820   0.95800   0.01267  Uiso   1.00
H100   H     0.90750   0.75970   0.94610   0.01267  Uiso   1.00
H101   H     0.55240   0.85110   0.10990   0.01267  Uiso   1.00
H102   H     0.46290   0.90620   0.07380   0.01267  Uiso   1.00
H103   H     0.57120   0.90910   0.20050   0.01267  Uiso   1.00
H104   H     0.62090   0.97490   0.19270   0.01267  Uiso   1.00
H105   H     0.39340   0.06950   0.17630   0.01267  Uiso   1.00
H106   H     0.05790   0.97720   0.17240   0.01267  Uiso   1.00
H107   H     0.07500   0.78640   0.15320   0.01267  Uiso   1.00
H108   H     0.17980   0.90800   0.01700   0.01267  Uiso   1.00
H109   H     0.91330   0.95800   0.03440   0.01267  Uiso   1.00
H110   H     0.34980   0.83390   0.77350   0.01267  Uiso   1.00
H111   H     0.45210   0.81110   0.82450   0.01267  Uiso   1.00
H112   H     0.65260   0.01580   0.08500   0.01267  Uiso   1.00
C1     C     0.33104   0.96706   0.61286   0.01267  Uiso   1.00
C2     C     0.20278   0.96194   0.70430   0.01267  Uiso   1.00
C3     C     0.35195   0.08021   0.61529   0.01267  Uiso   1.00
C4     C     0.24268   0.10729   0.56915   0.01267  Uiso   1.00
C5     C     0.25880   0.17551   0.55289   0.01267  Uiso   1.00
C6     C     0.48704   0.17631   0.46261   0.01267  Uiso   1.00
C7     C     0.66821   0.17446   0.51372   0.01267  Uiso   1.00
C8     C     0.06904   0.10318   0.59754   0.01267  Uiso   1.00
C9     C     0.98081   0.13700   0.64838   0.01267  Uiso   1.00
C10    C     0.82874   0.12902   0.67910   0.01267  Uiso   1.00
C11    C     0.76919   0.08439   0.65603   0.01267  Uiso   1.00
C12    C     0.84805   0.04784   0.60606   0.01267  Uiso   1.00
C13    C     0.99752   0.05829   0.57687   0.01267  Uiso   1.00
C14    C     0.87603   0.85402   0.61512   0.01267  Uiso   1.00
C15    C     0.83916   0.81772   0.67536   0.01267  Uiso   1.00
C16    C     0.91039   0.83335   0.72927   0.01267  Uiso   1.00
C17    C     0.41096   0.53294   0.88714   0.01267  Uiso   1.00
C18    C     0.36902   0.53806   0.79570   0.01267  Uiso   1.00
C19    C     0.54745   0.41979   0.88471   0.01267  Uiso   1.00
C20    C     0.41912   0.39271   0.93085   0.01267  Uiso   1.00
C21    C     0.48720   0.32449   0.94711   0.01267  Uiso   1.00
C22    C     0.62596   0.32369   0.03739   0.01267  Uiso   1.00
C23    C     0.85639   0.32554   0.98628   0.01267  Uiso   1.00
C24    C     0.26976   0.39682   0.90246   0.01267  Uiso   1.00
C25    C     0.26619   0.36300   0.85162   0.01267  Uiso   1.00
C26    C     0.13686   0.37098   0.82090   0.01267  Uiso   1.00
C27    C     0.00961   0.41561   0.84397   0.01267  Uiso   1.00
C28    C     0.00195   0.45216   0.89394   0.01267  Uiso   1.00
C29    C     0.13268   0.44171   0.92313   0.01267  Uiso   1.00
C30    C     0.84517   0.64598   0.88488   0.01267  Uiso   1.00
C31    C     0.83224   0.68228   0.82464   0.01267  Uiso   1.00
C32    C     0.97301   0.66665   0.77073   0.01267  Uiso   1.00
C33    C     0.94390   0.38714   0.46706   0.01267  Uiso   1.00
C34    C     0.90708   0.29570   0.46194   0.01267  Uiso   1.00
C35    C     0.96724   0.38471   0.58021   0.01267  Uiso   1.00
C36    C     0.81183   0.43085   0.60729   0.01267  Uiso   1.00
C37    C     0.81169   0.44711   0.67551   0.01267  Uiso   1.00
C38    C     0.94965   0.53739   0.67631   0.01267  Uiso   1.00
C39    C     0.18193   0.48628   0.67446   0.01267  Uiso   1.00
C40    C     0.66658   0.40246   0.60318   0.01267  Uiso   1.00
C41    C     0.62919   0.35162   0.63700   0.01267  Uiso   1.00
C42    C     0.50784   0.32090   0.62902   0.01267  Uiso   1.00
C43    C     0.42522   0.34397   0.58439   0.01267  Uiso   1.00
C44    C     0.45411   0.39394   0.54784   0.01267  Uiso   1.00
C45    C     0.57439   0.42313   0.55829   0.01267  Uiso   1.00
C46    C     0.49115   0.38488   0.35402   0.01267  Uiso   1.00
C47    C     0.51452   0.32464   0.31772   0.01267  Uiso   1.00
C48    C     0.63966   0.27073   0.33335   0.01267  Uiso   1.00
C49    C     0.29810   0.11286   0.03294   0.01267  Uiso   1.00
C50    C     0.16472   0.20430   0.03806   0.01267  Uiso   1.00
C51    C     0.43216   0.11529   0.91979   0.01267  Uiso   1.00
C52    C     0.34997   0.06915   0.89271   0.01267  Uiso   1.00
C53    C     0.43431   0.05289   0.82449   0.01267  Uiso   1.00
C54    C     0.66335   0.96261   0.82369   0.01267  Uiso   1.00
C55    C     0.84267   0.01372   0.82554   0.01267  Uiso   1.00
C56    C     0.17222   0.09754   0.89682   0.01267  Uiso   1.00
C57    C     0.11781   0.14838   0.86300   0.01267  Uiso   1.00
C58    C     0.95776   0.17910   0.87098   0.01267  Uiso   1.00
C59    C     0.85358   0.15603   0.91561   0.01267  Uiso   1.00
C60    C     0.89589   0.10606   0.95216   0.01267  Uiso   1.00
C61    C     0.05581   0.07687   0.94171   0.01267  Uiso   1.00
C62    C     0.73005   0.11512   0.14598   0.01267  Uiso   1.00
C63    C     0.65688   0.17536   0.18228   0.01267  Uiso   1.00
C64    C     0.74374   0.22927   0.16665   0.01267  Uiso   1.00
C65    C     0.66896   0.03294   0.38714   0.01267  Uiso   1.00
C66    C     0.79722   0.03806   0.29570   0.01267  Uiso   1.00
C67    C     0.64805   0.91979   0.38471   0.01267  Uiso   1.00
C68    C     0.75732   0.89271   0.43085   0.01267  Uiso   1.00
C69    C     0.74120   0.82449   0.44711   0.01267  Uiso   1.00
C70    C     0.51296   0.82369   0.53739   0.01267  Uiso   1.00
C71    C     0.33179   0.82554   0.48628   0.01267  Uiso   1.00
C72    C     0.93096   0.89682   0.40246   0.01267  Uiso   1.00
C73    C     0.01919   0.86300   0.35162   0.01267  Uiso   1.00
C74    C     0.17126   0.87098   0.32090   0.01267  Uiso   1.00
C75    C     0.23081   0.91561   0.34397   0.01267  Uiso   1.00
C76    C     0.15195   0.95216   0.39394   0.01267  Uiso   1.00
C77    C     0.00248   0.94171   0.42313   0.01267  Uiso   1.00
C78    C     0.12397   0.14598   0.38488   0.01267  Uiso   1.00
C79    C     0.16084   0.18228   0.32464   0.01267  Uiso   1.00
C80    C     0.08961   0.16665   0.27073   0.01267  Uiso   1.00
C81    C     0.58904   0.46706   0.11286   0.01267  Uiso   1.00
C82    C     0.63098   0.46194   0.20430   0.01267  Uiso   1.00
C83    C     0.45255   0.58021   0.11529   0.01267  Uiso   1.00
C84    C     0.58088   0.60729   0.06915   0.01267  Uiso   1.00
C85    C     0.51280   0.67551   0.05289   0.01267  Uiso   1.00
C86    C     0.37404   0.67631   0.96261   0.01267  Uiso   1.00
C87    C     0.14361   0.67446   0.01372   0.01267  Uiso   1.00
C88    C     0.73024   0.60318   0.09754   0.01267  Uiso   1.00
C89    C     0.73381   0.63700   0.14838   0.01267  Uiso   1.00
C90    C     0.86314   0.62902   0.17910   0.01267  Uiso   1.00
C91    C     0.99039   0.58439   0.15603   0.01267  Uiso   1.00
C92    C     0.99805   0.54784   0.10606   0.01267  Uiso   1.00
C93    C     0.86732   0.55829   0.07687   0.01267  Uiso   1.00
C94    C     0.15483   0.35402   0.11512   0.01267  Uiso   1.00
C95    C     0.16776   0.31772   0.17536   0.01267  Uiso   1.00
C96    C     0.02699   0.33335   0.22927   0.01267  Uiso   1.00
C97    C     0.05610   0.61286   0.53294   0.01267  Uiso   1.00
C98    C     0.09292   0.70430   0.53806   0.01267  Uiso   1.00
C99    C     0.03276   0.61529   0.41979   0.01267  Uiso   1.00
C100   C     0.18817   0.56915   0.39271   0.01267  Uiso   1.00
C101   C     0.18831   0.55289   0.32449   0.01267  Uiso   1.00
C102   C     0.05035   0.46261   0.32369   0.01267  Uiso   1.00
C103   C     0.81807   0.51372   0.32554   0.01267  Uiso   1.00
C104   C     0.33342   0.59754   0.39682   0.01267  Uiso   1.00
C105   C     0.37081   0.64838   0.36300   0.01267  Uiso   1.00
C106   C     0.49216   0.67910   0.37098   0.01267  Uiso   1.00
C107   C     0.57478   0.65603   0.41561   0.01267  Uiso   1.00
C108   C     0.54589   0.60606   0.45216   0.01267  Uiso   1.00
C109   C     0.42561   0.57687   0.44171   0.01267  Uiso   1.00
C110   C     0.50885   0.61512   0.64598   0.01267  Uiso   1.00
C111   C     0.48548   0.67536   0.68228   0.01267  Uiso   1.00
C112   C     0.36034   0.72927   0.66665   0.01267  Uiso   1.00
C113   C     0.70190   0.88714   0.96706   0.01267  Uiso   1.00
C114   C     0.83528   0.79570   0.96194   0.01267  Uiso   1.00
C115   C     0.56784   0.88471   0.08021   0.01267  Uiso   1.00
C116   C     0.65003   0.93085   0.10729   0.01267  Uiso   1.00
C117   C     0.56569   0.94711   0.17551   0.01267  Uiso   1.00
C118   C     0.33665   0.03739   0.17631   0.01267  Uiso   1.00
C119   C     0.15733   0.98628   0.17446   0.01267  Uiso   1.00
C120   C     0.82778   0.90246   0.10318   0.01267  Uiso   1.00
C121   C     0.88219   0.85162   0.13700   0.01267  Uiso   1.00
C122   C     0.04224   0.82090   0.12902   0.01267  Uiso   1.00
C123   C     0.14642   0.84397   0.08439   0.01267  Uiso   1.00
C124   C     0.10411   0.89394   0.04784   0.01267  Uiso   1.00
C125   C     0.94419   0.92313   0.05829   0.01267  Uiso   1.00
C126   C     0.26995   0.88488   0.85402   0.01267  Uiso   1.00
C127   C     0.34312   0.82464   0.81772   0.01267  Uiso   1.00
C128   C     0.25626   0.77073   0.83335   0.01267  Uiso   1.00
N1     N     0.26042   0.92800   0.65136   0.01267  Uiso   1.00
N2     N     0.31569   0.02106   0.64156   0.01267  Uiso   1.00
N3     N     0.23176   0.01883   0.70145   0.01267  Uiso   1.00
N4     N     0.42272   0.17911   0.52285   0.01267  Uiso   1.00
N5     N     0.53878   0.17830   0.55714   0.01267  Uiso   1.00
N6     N     0.64295   0.17359   0.45431   0.01267  Uiso   1.00
N7     N     0.33978   0.57200   0.84864   0.01267  Uiso   1.00
N8     N     0.47831   0.47894   0.85844   0.01267  Uiso   1.00
N9     N     0.45204   0.48117   0.79855   0.01267  Uiso   1.00
N10    N     0.62468   0.32089   0.97715   0.01267  Uiso   1.00
N11    N     0.77422   0.32170   0.94286   0.01267  Uiso   1.00
N12    N     0.77085   0.32641   0.04569   0.01267  Uiso   1.00
N13    N     0.91178   0.34864   0.42800   0.01267  Uiso   1.00
N14    N     0.95725   0.35844   0.52106   0.01267  Uiso   1.00
N15    N     0.93321   0.29855   0.51883   0.01267  Uiso   1.00
N16    N     0.94557   0.47715   0.67911   0.01267  Uiso   1.00
N17    N     0.09592   0.44286   0.67830   0.01267  Uiso   1.00
N18    N     0.09726   0.54569   0.67359   0.01267  Uiso   1.00
N19    N     0.18842   0.15136   0.07200   0.01267  Uiso   1.00
N20    N     0.33675   0.14156   0.97894   0.01267  Uiso   1.00
N21    N     0.25059   0.20145   0.98117   0.01267  Uiso   1.00
N22    N     0.60183   0.02285   0.82089   0.01267  Uiso   1.00
N23    N     0.71708   0.05714   0.82170   0.01267  Uiso   1.00
N24    N     0.81654   0.95431   0.82641   0.01267  Uiso   1.00
N25    N     0.73958   0.07200   0.34864   0.01267  Uiso   1.00
N26    N     0.68431   0.97894   0.35844   0.01267  Uiso   1.00
N27    N     0.76824   0.98117   0.29855   0.01267  Uiso   1.00
N28    N     0.57728   0.82089   0.47715   0.01267  Uiso   1.00
N29    N     0.46122   0.82170   0.44286   0.01267  Uiso   1.00
N30    N     0.35705   0.82641   0.54569   0.01267  Uiso   1.00
N31    N     0.66022   0.42800   0.15136   0.01267  Uiso   1.00
N32    N     0.52169   0.52106   0.14156   0.01267  Uiso   1.00
N33    N     0.54796   0.51883   0.20145   0.01267  Uiso   1.00
N34    N     0.37532   0.67911   0.02285   0.01267  Uiso   1.00
N35    N     0.22578   0.67830   0.05714   0.01267  Uiso   1.00
N36    N     0.22915   0.67359   0.95431   0.01267  Uiso   1.00
N37    N     0.08822   0.65136   0.57200   0.01267  Uiso   1.00
N38    N     0.04275   0.64156   0.47894   0.01267  Uiso   1.00
N39    N     0.06679   0.70145   0.48117   0.01267  Uiso   1.00
N40    N     0.05443   0.52285   0.32089   0.01267  Uiso   1.00
N41    N     0.90408   0.55714   0.32170   0.01267  Uiso   1.00
N42    N     0.90274   0.45431   0.32641   0.01267  Uiso   1.00
N43    N     0.81158   0.84864   0.92800   0.01267  Uiso   1.00
N44    N     0.66325   0.85844   0.02106   0.01267  Uiso   1.00
N45    N     0.74941   0.79855   0.01883   0.01267  Uiso   1.00
N46    N     0.39817   0.97715   0.17911   0.01267  Uiso   1.00
N47    N     0.28292   0.94286   0.17830   0.01267  Uiso   1.00
N48    N     0.18346   0.04569   0.17359   0.01267  Uiso   1.00
O1     O     0.29949   0.06895   0.51569   0.01267  Uiso   1.00
O2     O     0.04530   0.84886   0.72036   0.01267  Uiso   1.00
O3     O     0.01959   0.85673   0.59179   0.01267  Uiso   1.00
O4     O     0.76175   0.87771   0.59023   0.01267  Uiso   1.00
O5     O     0.82975   0.82978   0.78360   0.01267  Uiso   1.00
O6     O     0.38413   0.43105   0.98431   0.01267  Uiso   1.00
O7     O     0.11452   0.65114   0.77964   0.01267  Uiso   1.00
O8     O     0.96811   0.64327   0.90821   0.01267  Uiso   1.00
O9     O     0.72969   0.62229   0.90977   0.01267  Uiso   1.00
O10    O     0.94313   0.67022   0.71640   0.01267  Uiso   1.00
O11    O     0.81518   0.48431   0.56895   0.01267  Uiso   1.00
O12    O     0.76566   0.27964   0.34886   0.01267  Uiso   1.00
O13    O     0.61138   0.40821   0.35673   0.01267  Uiso   1.00
O14    O     0.35198   0.40977   0.37771   0.01267  Uiso   1.00
O15    O     0.61335   0.21640   0.32978   0.01267  Uiso   1.00
O16    O     0.36844   0.01569   0.93105   0.01267  Uiso   1.00
O17    O     0.89416   0.22036   0.15114   0.01267  Uiso   1.00
O18    O     0.87632   0.09179   0.14327   0.01267  Uiso   1.00
O19    O     0.63946   0.09023   0.12229   0.01267  Uiso   1.00
O20    O     0.65953   0.28360   0.17022   0.01267  Uiso   1.00
O21    O     0.70051   0.93105   0.48431   0.01267  Uiso   1.00
O22    O     0.95470   0.15114   0.27964   0.01267  Uiso   1.00
O23    O     0.98041   0.14327   0.40821   0.01267  Uiso   1.00
O24    O     0.23825   0.12229   0.40977   0.01267  Uiso   1.00
O25    O     0.17025   0.17022   0.21640   0.01267  Uiso   1.00
O26    O     0.61587   0.56895   0.01569   0.01267  Uiso   1.00
O27    O     0.88548   0.34886   0.22036   0.01267  Uiso   1.00
O28    O     0.03189   0.35673   0.09179   0.01267  Uiso   1.00
O29    O     0.27031   0.37771   0.09023   0.01267  Uiso   1.00
O30    O     0.05687   0.32978   0.28360   0.01267  Uiso   1.00
O31    O     0.18482   0.51569   0.43105   0.01267  Uiso   1.00
O32    O     0.23434   0.72036   0.65114   0.01267  Uiso   1.00
O33    O     0.38862   0.59179   0.64327   0.01267  Uiso   1.00
O34    O     0.64802   0.59023   0.62229   0.01267  Uiso   1.00
O35    O     0.38665   0.78360   0.67022   0.01267  Uiso   1.00
O36    O     0.63156   0.98431   0.06895   0.01267  Uiso   1.00
O37    O     0.10584   0.77964   0.84886   0.01267  Uiso   1.00
O38    O     0.12368   0.90821   0.85673   0.01267  Uiso   1.00
O39    O     0.36054   0.90977   0.87771   0.01267  Uiso   1.00
O40    O     0.34047   0.71640   0.82978   0.01267  Uiso   1.00
F1     F     0.04438   0.17982   0.67402   0.01267  Uiso   1.00
F2     F     0.62318   0.07376   0.68588   0.01267  Uiso   1.00
F3     F     0.39822   0.32018   0.82598   0.01267  Uiso   1.00
F4     F     0.88282   0.42624   0.81412   0.01267  Uiso   1.00
F5     F     0.71840   0.32598   0.67982   0.01267  Uiso   1.00
F6     F     0.30906   0.31412   0.57376   0.01267  Uiso   1.00
F7     F     0.22420   0.17402   0.82018   0.01267  Uiso   1.00
F8     F     0.69694   0.18588   0.92624   0.01267  Uiso   1.00
F9     F     0.95562   0.82018   0.32598   0.01267  Uiso   1.00
F10    F     0.37682   0.92624   0.31412   0.01267  Uiso   1.00
F11    F     0.60178   0.67982   0.17402   0.01267  Uiso   1.00
F12    F     0.11718   0.57376   0.18588   0.01267  Uiso   1.00
F13    F     0.28160   0.67402   0.32018   0.01267  Uiso   1.00
F14    F     0.69094   0.68588   0.42624   0.01267  Uiso   1.00
F15    F     0.77580   0.82598   0.17982   0.01267  Uiso   1.00
F16    F     0.30306   0.81412   0.07376   0.01267  Uiso   1.00
