data_ja4012707_si_005_clean
_audit_creation_date              2015-08-19
_audit_creation_method            'Materials Studio'
_symmetry_space_group_name_H-M    'P1'
_symmetry_Int_Tables_number       1
_symmetry_cell_setting            triclinic
loop_
_symmetry_equiv_pos_as_xyz
  x,y,z
_cell_length_a                    12.4815
_cell_length_b                    12.4815
_cell_length_c                    12.4815
_cell_angle_alpha                 90.0000
_cell_angle_beta                  90.0000
_cell_angle_gamma                 90.0000
loop_
_atom_site_label
_atom_site_type_symbol
_atom_site_fract_x
_atom_site_fract_y
_atom_site_fract_z
_atom_site_U_iso_or_equiv
_atom_site_adp_type
_atom_site_occupancy
Zn1    Zn    0.60819   0.39181   0.89181   0.01267  Uiso   1.00
Zn2    Zn    0.39181   0.60819   0.10819   0.01267  Uiso   1.00
C1     C     0.52620   0.47380   0.97380   0.01267  Uiso   1.00
C2     C     0.84090   0.43190   0.95120   0.01267  Uiso   1.00
C3     C     0.54880   0.15910   0.93190   0.01267  Uiso   1.00
C4     C     0.45120   0.84090   0.06810   0.01267  Uiso   1.00
C5     C     0.56810   0.45120   0.65910   0.01267  Uiso   1.00
C6     C     0.15910   0.56810   0.04880   0.01267  Uiso   1.00
C7     C     0.47380   0.52620   0.02620   0.01267  Uiso   1.00
C8     C     0.43190   0.54880   0.34090   0.01267  Uiso   1.00
N1     N     0.58820   0.42580   0.74060   0.01267  Uiso   1.00
N2     N     0.41180   0.57420   0.25940   0.01267  Uiso   1.00
N3     N     0.57420   0.24060   0.91180   0.01267  Uiso   1.00
N4     N     0.24060   0.58820   0.07420   0.01267  Uiso   1.00
N5     N     0.42580   0.75940   0.08820   0.01267  Uiso   1.00
N6     N     0.75940   0.41180   0.92580   0.01267  Uiso   1.00
Zn3    Zn    0.10819   0.10819   0.10819   0.01267  Uiso   1.00
Zn4    Zn    0.89181   0.89181   0.89181   0.01267  Uiso   1.00
C9     C     0.95120   0.65910   0.93190   0.01267  Uiso   1.00
C10    C     0.06810   0.04880   0.34090   0.01267  Uiso   1.00
C11    C     0.97380   0.97380   0.97380   0.01267  Uiso   1.00
C12    C     0.93190   0.95120   0.65910   0.01267  Uiso   1.00
C13    C     0.04880   0.34090   0.06810   0.01267  Uiso   1.00
C14    C     0.34090   0.06810   0.04880   0.01267  Uiso   1.00
C15    C     0.65910   0.93190   0.95120   0.01267  Uiso   1.00
C16    C     0.02620   0.02620   0.02620   0.01267  Uiso   1.00
N7     N     0.92580   0.74060   0.91180   0.01267  Uiso   1.00
N8     N     0.74060   0.91180   0.92580   0.01267  Uiso   1.00
N9     N     0.91180   0.92580   0.74060   0.01267  Uiso   1.00
N10    N     0.25940   0.08820   0.07420   0.01267  Uiso   1.00
N11    N     0.07420   0.25940   0.08820   0.01267  Uiso   1.00
N12    N     0.08820   0.07420   0.25940   0.01267  Uiso   1.00
Zn5    Zn    0.60819   0.10819   0.39181   0.01267  Uiso   1.00
Zn6    Zn    0.39181   0.89181   0.60819   0.01267  Uiso   1.00
C17    C     0.45120   0.65910   0.56810   0.01267  Uiso   1.00
C18    C     0.56810   0.04880   0.15910   0.01267  Uiso   1.00
C19    C     0.43190   0.95120   0.84090   0.01267  Uiso   1.00
C20    C     0.15910   0.93190   0.54880   0.01267  Uiso   1.00
C21    C     0.52620   0.02620   0.47380   0.01267  Uiso   1.00
C22    C     0.54880   0.34090   0.43190   0.01267  Uiso   1.00
C23    C     0.47380   0.97380   0.52620   0.01267  Uiso   1.00
C24    C     0.84090   0.06810   0.45120   0.01267  Uiso   1.00
N13    N     0.42580   0.74060   0.58820   0.01267  Uiso   1.00
N14    N     0.57420   0.25940   0.41180   0.01267  Uiso   1.00
N15    N     0.75940   0.08820   0.42580   0.01267  Uiso   1.00
N16    N     0.58820   0.07420   0.24060   0.01267  Uiso   1.00
N17    N     0.24060   0.91180   0.57420   0.01267  Uiso   1.00
N18    N     0.41180   0.92580   0.75940   0.01267  Uiso   1.00
Zn7    Zn    0.89181   0.60819   0.39181   0.01267  Uiso   1.00
Zn8    Zn    0.10819   0.39181   0.60819   0.01267  Uiso   1.00
C25    C     0.34090   0.43190   0.54880   0.01267  Uiso   1.00
C26    C     0.06810   0.45120   0.84090   0.01267  Uiso   1.00
C27    C     0.97380   0.52620   0.47380   0.01267  Uiso   1.00
C28    C     0.65910   0.56810   0.45120   0.01267  Uiso   1.00
C29    C     0.93190   0.54880   0.15910   0.01267  Uiso   1.00
C30    C     0.95120   0.84090   0.43190   0.01267  Uiso   1.00
C31    C     0.04880   0.15910   0.56810   0.01267  Uiso   1.00
C32    C     0.02620   0.47380   0.52620   0.01267  Uiso   1.00
N19    N     0.25940   0.41180   0.57420   0.01267  Uiso   1.00
N20    N     0.08820   0.42580   0.75940   0.01267  Uiso   1.00
N21    N     0.07420   0.24060   0.58820   0.01267  Uiso   1.00
N22    N     0.74060   0.58820   0.42580   0.01267  Uiso   1.00
N23    N     0.91180   0.57420   0.24060   0.01267  Uiso   1.00
N24    N     0.92580   0.75940   0.41180   0.01267  Uiso   1.00
