data_IDIWOH05_clean
_audit_creation_date              2015-10-16
_audit_creation_method            'Materials Studio'
_symmetry_space_group_name_H-M    'P1'
_symmetry_Int_Tables_number       1
_symmetry_cell_setting            triclinic
loop_
_symmetry_equiv_pos_as_xyz
  x,y,z
_cell_length_a                    6.8548
_cell_length_b                    11.2408
_cell_length_c                    11.2408
_cell_angle_alpha                 76.8265
_cell_angle_beta                  72.3089
_cell_angle_gamma                 72.3094
loop_
_atom_site_label
_atom_site_type_symbol
_atom_site_fract_x
_atom_site_fract_y
_atom_site_fract_z
_atom_site_U_iso_or_equiv
_atom_site_adp_type
_atom_site_occupancy
C1     C     0.79875   0.06449   0.99145   0.01267  Uiso   1.00
C2     C     0.86499   0.26781   0.00192   0.01267  Uiso   1.00
C3     C     0.36495   0.48945   0.43526   0.01267  Uiso   1.00
C4     C     0.63899   0.49597   0.23005   0.01267  Uiso   1.00
C5     C     0.64529   0.50749   0.56297   0.01267  Uiso   1.00
C6     C     0.07150   0.86867   0.99711   0.01267  Uiso   1.00
C7     C     0.29875   0.49140   0.56454   0.01267  Uiso   1.00
C8     C     0.57150   0.49707   0.36871   0.01267  Uiso   1.00
C9     C     0.86495   0.93523   0.98950   0.01267  Uiso   1.00
C10    C     0.13899   0.73001   0.99601   0.01267  Uiso   1.00
C11    C     0.93845   0.12923   0.00040   0.01267  Uiso   1.00
C12    C     0.71131   0.50618   0.43328   0.01267  Uiso   1.00
C13    C     0.43845   0.50036   0.62927   0.01267  Uiso   1.00
C14    C     0.36499   0.50188   0.76786   0.01267  Uiso   1.00
C15    C     0.14529   0.06292   0.00754   0.01267  Uiso   1.00
C16    C     0.21131   0.93323   0.00623   0.01267  Uiso   1.00
H1     H     0.25899   0.48194   0.38371   0.01267  Uiso   1.00
H2     H     0.87078   0.51230   0.38009   0.01267  Uiso   1.00
H3     H     0.37077   0.88005   0.01235   0.01267  Uiso   1.00
H4     H     0.25133   0.11466   0.01472   0.01267  Uiso   1.00
H5     H     0.75899   0.88367   0.98198   0.01267  Uiso   1.00
H6     H     0.63909   0.11751   0.98574   0.01267  Uiso   1.00
H7     H     0.75134   0.51466   0.61470   0.01267  Uiso   1.00
H8     H     0.13910   0.48569   0.61756   0.01267  Uiso   1.00
O1     O     0.74543   0.55315   0.94449   0.01267  Uiso   1.00
O2     O     0.82833   0.50281   0.17183   0.01267  Uiso   1.00
O3     O     0.00146   0.67844   0.98870   0.01267  Uiso   1.00
O4     O     0.17019   0.50475   0.81943   0.01267  Uiso   1.00
O5     O     0.24543   0.44444   0.05320   0.01267  Uiso   1.00
O6     O     0.50147   0.48865   0.17849   0.01267  Uiso   1.00
O7     O     0.67020   0.31939   0.00479   0.01267  Uiso   1.00
O8     O     0.32833   0.67178   0.00286   0.01267  Uiso   1.00
O9     O     0.00071   0.32588   0.99976   0.01267  Uiso   1.00
O10    O     0.50071   0.49972   0.82592   0.01267  Uiso   1.00
V1     V     0.46964   0.48814   0.00976   0.01267  Uiso   1.00
V2     V     0.96964   0.50971   0.98819   0.01267  Uiso   1.00
