data_KEYFIF_clean
_audit_creation_date              2014-07-02
_audit_creation_method            'Materials Studio'
_symmetry_space_group_name_H-M    'P1'
_symmetry_Int_Tables_number       1
_symmetry_cell_setting            triclinic
loop_
_symmetry_equiv_pos_as_xyz
  x,y,z
_cell_length_a                    6.9704
_cell_length_b                    15.7728
_cell_length_c                    15.7728
_cell_angle_alpha                 62.1311
_cell_angle_beta                  81.5290
_cell_angle_gamma                 98.4710
loop_
_atom_site_label
_atom_site_type_symbol
_atom_site_fract_x
_atom_site_fract_y
_atom_site_fract_z
_atom_site_U_iso_or_equiv
_atom_site_adp_type
_atom_site_occupancy
Cu1    Cu    0.03959   0.90186   0.56786   0.01267  Uiso   1.00
Cu2    Cu    0.60745   0.56786   0.53028   0.01267  Uiso   1.00
Cu3    Cu    0.13773   0.53028   0.90186   0.01267  Uiso   1.00
Cu4    Cu    0.96041   0.09814   0.43214   0.01267  Uiso   1.00
Cu5    Cu    0.39255   0.43214   0.46972   0.01267  Uiso   1.00
Cu6    Cu    0.86227   0.46972   0.09814   0.01267  Uiso   1.00
H1     H     0.25140   0.12890   0.24600   0.01267  Uiso   1.00
H2     H     0.53560   0.15460   0.13460   0.01267  Uiso   1.00
H3     H     0.77920   0.07000   0.18560   0.01267  Uiso   1.00
H4     H     0.72570   0.95240   0.34880   0.01267  Uiso   1.00
H5     H     0.54250   0.86120   0.51110   0.01267  Uiso   1.00
H6     H     0.38030   0.79170   0.69240   0.01267  Uiso   1.00
H7     H     0.29970   0.71680   0.65890   0.01267  Uiso   1.00
H8     H     0.49740   0.24600   0.62510   0.01267  Uiso   1.00
H9     H     0.67020   0.13460   0.71080   0.01267  Uiso   1.00
H10    H     0.96480   0.18560   0.74440   0.01267  Uiso   1.00
H11    H     0.07450   0.34880   0.69880   0.01267  Uiso   1.00
H12    H     0.05360   0.51110   0.62770   0.01267  Uiso   1.00
H13    H     0.07270   0.69240   0.51590   0.01267  Uiso   1.00
H14    H     0.95860   0.65890   0.62430   0.01267  Uiso   1.00
H15    H     0.12250   0.62510   0.12890   0.01267  Uiso   1.00
H16    H     0.38100   0.71080   0.15460   0.01267  Uiso   1.00
H17    H     0.70920   0.74440   0.07000   0.01267  Uiso   1.00
H18    H     0.77330   0.69880   0.95240   0.01267  Uiso   1.00
H19    H     0.68130   0.62770   0.86120   0.01267  Uiso   1.00
H20    H     0.58860   0.51590   0.79170   0.01267  Uiso   1.00
H21    H     0.58290   0.62430   0.71680   0.01267  Uiso   1.00
H22    H     0.74860   0.87110   0.75400   0.01267  Uiso   1.00
H23    H     0.46440   0.84540   0.86540   0.01267  Uiso   1.00
H24    H     0.22080   0.93000   0.81440   0.01267  Uiso   1.00
H25    H     0.27430   0.04760   0.65120   0.01267  Uiso   1.00
H26    H     0.45750   0.13880   0.48890   0.01267  Uiso   1.00
H27    H     0.61970   0.20830   0.30760   0.01267  Uiso   1.00
H28    H     0.70030   0.28320   0.34110   0.01267  Uiso   1.00
H29    H     0.50260   0.75400   0.37490   0.01267  Uiso   1.00
H30    H     0.32980   0.86540   0.28920   0.01267  Uiso   1.00
H31    H     0.03520   0.81440   0.25560   0.01267  Uiso   1.00
H32    H     0.92550   0.65120   0.30120   0.01267  Uiso   1.00
H33    H     0.94640   0.48890   0.37230   0.01267  Uiso   1.00
H34    H     0.92730   0.30760   0.48410   0.01267  Uiso   1.00
H35    H     0.04140   0.34110   0.37570   0.01267  Uiso   1.00
H36    H     0.87750   0.37490   0.87110   0.01267  Uiso   1.00
H37    H     0.61900   0.28920   0.84540   0.01267  Uiso   1.00
H38    H     0.29080   0.25560   0.93000   0.01267  Uiso   1.00
H39    H     0.22670   0.30120   0.04760   0.01267  Uiso   1.00
H40    H     0.31870   0.37230   0.13880   0.01267  Uiso   1.00
H41    H     0.41140   0.48410   0.20830   0.01267  Uiso   1.00
H42    H     0.41710   0.37570   0.28320   0.01267  Uiso   1.00
C1     C     0.45572   0.96874   0.39898   0.01267  Uiso   1.00
C2     C     0.31203   0.02500   0.36941   0.01267  Uiso   1.00
C3     C     0.34606   0.09339   0.26821   0.01267  Uiso   1.00
C4     C     0.51712   0.10892   0.20106   0.01267  Uiso   1.00
C5     C     0.66220   0.05732   0.23112   0.01267  Uiso   1.00
C6     C     0.63021   0.98791   0.32848   0.01267  Uiso   1.00
C7     C     0.43447   0.88939   0.49828   0.01267  Uiso   1.00
C8     C     0.27557   0.77243   0.66602   0.01267  Uiso   1.00
C9     C     0.07382   0.74206   0.73690   0.01267  Uiso   1.00
C10    C     0.85470   0.39898   0.63228   0.01267  Uiso   1.00
C11    C     0.68144   0.36941   0.60559   0.01267  Uiso   1.00
C12    C     0.61427   0.26821   0.63840   0.01267  Uiso   1.00
C13    C     0.71818   0.20106   0.69002   0.01267  Uiso   1.00
C14    C     0.89332   0.23112   0.71156   0.01267  Uiso   1.00
C15    C     0.95869   0.32848   0.68361   0.01267  Uiso   1.00
C16    C     0.93275   0.49828   0.61233   0.01267  Uiso   1.00
C17    C     0.94159   0.66602   0.56155   0.01267  Uiso   1.00
C18    C     0.81072   0.73690   0.52104   0.01267  Uiso   1.00
C19    C     0.48698   0.63228   0.96874   0.01267  Uiso   1.00
C20    C     0.28703   0.60559   0.02500   0.01267  Uiso   1.00
C21    C     0.25267   0.63840   0.09339   0.01267  Uiso   1.00
C22    C     0.40820   0.69002   0.10892   0.01267  Uiso   1.00
C23    C     0.60488   0.71156   0.05732   0.01267  Uiso   1.00
C24    C     0.64230   0.68361   0.98791   0.01267  Uiso   1.00
C25    C     0.54508   0.61233   0.88939   0.01267  Uiso   1.00
C26    C     0.50314   0.56155   0.77243   0.01267  Uiso   1.00
C27    C     0.33176   0.52104   0.74206   0.01267  Uiso   1.00
C28    C     0.54428   0.03126   0.60102   0.01267  Uiso   1.00
C29    C     0.68797   0.97500   0.63059   0.01267  Uiso   1.00
C30    C     0.65394   0.90661   0.73179   0.01267  Uiso   1.00
C31    C     0.48288   0.89108   0.79894   0.01267  Uiso   1.00
C32    C     0.33780   0.94268   0.76888   0.01267  Uiso   1.00
C33    C     0.36979   0.01209   0.67152   0.01267  Uiso   1.00
C34    C     0.56553   0.11061   0.50172   0.01267  Uiso   1.00
C35    C     0.72443   0.22757   0.33398   0.01267  Uiso   1.00
C36    C     0.92618   0.25794   0.26310   0.01267  Uiso   1.00
C37    C     0.14530   0.60102   0.36772   0.01267  Uiso   1.00
C38    C     0.31856   0.63059   0.39441   0.01267  Uiso   1.00
C39    C     0.38573   0.73179   0.36160   0.01267  Uiso   1.00
C40    C     0.28182   0.79894   0.30998   0.01267  Uiso   1.00
C41    C     0.10668   0.76888   0.28844   0.01267  Uiso   1.00
C42    C     0.04131   0.67152   0.31639   0.01267  Uiso   1.00
C43    C     0.06725   0.50172   0.38767   0.01267  Uiso   1.00
C44    C     0.05841   0.33398   0.43845   0.01267  Uiso   1.00
C45    C     0.18928   0.26310   0.47896   0.01267  Uiso   1.00
C46    C     0.51302   0.36772   0.03126   0.01267  Uiso   1.00
C47    C     0.71297   0.39441   0.97500   0.01267  Uiso   1.00
C48    C     0.74733   0.36160   0.90661   0.01267  Uiso   1.00
C49    C     0.59180   0.30998   0.89108   0.01267  Uiso   1.00
C50    C     0.39512   0.28844   0.94268   0.01267  Uiso   1.00
C51    C     0.35770   0.31639   0.01209   0.01267  Uiso   1.00
C52    C     0.45492   0.38767   0.11061   0.01267  Uiso   1.00
C53    C     0.49686   0.43845   0.22757   0.01267  Uiso   1.00
C54    C     0.66824   0.47896   0.25794   0.01267  Uiso   1.00
N1     N     0.28055   0.85485   0.56970   0.01267  Uiso   1.00
N2     N     0.85025   0.56970   0.57545   0.01267  Uiso   1.00
N3     N     0.42570   0.57545   0.85485   0.01267  Uiso   1.00
N4     N     0.71945   0.14515   0.43030   0.01267  Uiso   1.00
N5     N     0.14975   0.43030   0.42455   0.01267  Uiso   1.00
N6     N     0.57430   0.42455   0.14515   0.01267  Uiso   1.00
O1     O     0.15154   0.01505   0.43443   0.01267  Uiso   1.00
O2     O     0.94977   0.79308   0.70377   0.01267  Uiso   1.00
O3     O     0.03675   0.67066   0.82111   0.01267  Uiso   1.00
O4     O     0.58597   0.43443   0.55052   0.01267  Uiso   1.00
O5     O     0.65354   0.70377   0.50315   0.01267  Uiso   1.00
O6     O     0.85786   0.82111   0.50823   0.01267  Uiso   1.00
O7     O     0.13649   0.55052   0.01505   0.01267  Uiso   1.00
O8     O     0.15669   0.50315   0.79308   0.01267  Uiso   1.00
O9     O     0.36609   0.50823   0.67066   0.01267  Uiso   1.00
O10    O     0.84846   0.98495   0.56557   0.01267  Uiso   1.00
O11    O     0.05023   0.20692   0.29623   0.01267  Uiso   1.00
O12    O     0.96325   0.32934   0.17889   0.01267  Uiso   1.00
O13    O     0.41403   0.56557   0.44948   0.01267  Uiso   1.00
O14    O     0.34646   0.29623   0.49685   0.01267  Uiso   1.00
O15    O     0.14214   0.17889   0.49177   0.01267  Uiso   1.00
O16    O     0.86351   0.44948   0.98495   0.01267  Uiso   1.00
O17    O     0.84331   0.49685   0.20692   0.01267  Uiso   1.00
O18    O     0.63391   0.49177   0.32934   0.01267  Uiso   1.00
