data_UYAQER_clean
_audit_creation_date              2014-07-02
_audit_creation_method            'Materials Studio'
_symmetry_space_group_name_H-M    'P1'
_symmetry_Int_Tables_number       1
_symmetry_cell_setting            triclinic
loop_
_symmetry_equiv_pos_as_xyz
  x,y,z
_cell_length_a                    10.2060
_cell_length_b                    16.0761
_cell_length_c                    16.0761
_cell_angle_alpha                 64.3529
_cell_angle_beta                  77.7828
_cell_angle_gamma                 102.2170
loop_
_atom_site_label
_atom_site_type_symbol
_atom_site_fract_x
_atom_site_fract_y
_atom_site_fract_z
_atom_site_U_iso_or_equiv
_atom_site_adp_type
_atom_site_occupancy
Zn1    Zn    0.00000   0.50000  -0.00000   0.01267  Uiso   1.00
H1     H     0.02120   0.40710   0.85730   0.01267  Uiso   1.00
H2     H     0.16060   0.33200   0.80620   0.01267  Uiso   1.00
H3     H     0.32850   0.29330   0.87430   0.01267  Uiso   1.00
H4     H     0.27100   0.58920   0.23110   0.01267  Uiso   1.00
H5     H     0.36830   0.60500   0.33990   0.01267  Uiso   1.00
H6     H     0.53090   0.40340   0.36000   0.01267  Uiso   1.00
H7     H     0.43720   0.38090   0.25230   0.01267  Uiso   1.00
H8     H     0.45100   0.28770   0.98390   0.01267  Uiso   1.00
H9     H     0.35880   0.27770   0.08130   0.01267  Uiso   1.00
H10    H     0.47290   0.37960   0.99810   0.01267  Uiso   1.00
H11    H     0.97880   0.59290   0.14270   0.01267  Uiso   1.00
H12    H     0.83940   0.66800   0.19380   0.01267  Uiso   1.00
H13    H     0.67150   0.70670   0.12570   0.01267  Uiso   1.00
H14    H     0.72900   0.41080   0.76890   0.01267  Uiso   1.00
H15    H     0.63170   0.39500   0.66010   0.01267  Uiso   1.00
H16    H     0.46910   0.59660   0.64000   0.01267  Uiso   1.00
H17    H     0.56280   0.61910   0.74770   0.01267  Uiso   1.00
H18    H     0.54900   0.71230   0.01610   0.01267  Uiso   1.00
H19    H     0.64120   0.72230   0.91870   0.01267  Uiso   1.00
H20    H     0.52710   0.62040   0.00190   0.01267  Uiso   1.00
C1     C     0.09050   0.39220   0.88470   0.01267  Uiso   1.00
C2     C     0.17300   0.34710   0.85430   0.01267  Uiso   1.00
C3     C     0.27270   0.32420   0.89500   0.01267  Uiso   1.00
C4     C     0.29350   0.34530   0.96650   0.01267  Uiso   1.00
C5     C     0.20800   0.39400   0.99270   0.01267  Uiso   1.00
C6     C     0.21773   0.42733   0.06494   0.01267  Uiso   1.00
C7     C     0.27080   0.46790   0.16290   0.01267  Uiso   1.00
C8     C     0.33870   0.48000   0.23020   0.01267  Uiso   1.00
C9     C     0.32220   0.54920   0.25740   0.01267  Uiso   1.00
C10    C     0.38160   0.55820   0.32280   0.01267  Uiso   1.00
C11    C     0.47620   0.44070   0.33460   0.01267  Uiso   1.00
C12    C     0.42020   0.42680   0.26970   0.01267  Uiso   1.00
C13    C     0.40390   0.32020   0.01160   0.01267  Uiso   1.00
C14    C     0.90950   0.60780   0.11530   0.01267  Uiso   1.00
C15    C     0.82700   0.65290   0.14570   0.01267  Uiso   1.00
C16    C     0.72730   0.67580   0.10500   0.01267  Uiso   1.00
C17    C     0.70650   0.65470   0.03350   0.01267  Uiso   1.00
C18    C     0.79200   0.60600   0.00730   0.01267  Uiso   1.00
C19    C     0.78227   0.57267   0.93506   0.01267  Uiso   1.00
C20    C     0.72920   0.53210   0.83710   0.01267  Uiso   1.00
C21    C     0.66130   0.52000   0.76980   0.01267  Uiso   1.00
C22    C     0.67780   0.45080   0.74260   0.01267  Uiso   1.00
C23    C     0.61840   0.44180   0.67720   0.01267  Uiso   1.00
C24    C     0.52380   0.55930   0.66540   0.01267  Uiso   1.00
C25    C     0.57980   0.57320   0.73030   0.01267  Uiso   1.00
C26    C     0.59610   0.67980   0.98840   0.01267  Uiso   1.00
N1     N     0.10740   0.41524   0.95364   0.01267  Uiso   1.00
N2     N     0.13469   0.47873   0.07686   0.01267  Uiso   1.00
N3     N     0.16988   0.50554   0.14120   0.01267  Uiso   1.00
N4     N     0.30354   0.41635   0.11813   0.01267  Uiso   1.00
N5     N     0.45688   0.50530   0.36356   0.01267  Uiso   1.00
N6     N     0.89260   0.58476   0.04636   0.01267  Uiso   1.00
N7     N     0.86531   0.52127   0.92314   0.01267  Uiso   1.00
N8     N     0.83012   0.49446   0.85880   0.01267  Uiso   1.00
N9     N     0.69646   0.58365   0.88187   0.01267  Uiso   1.00
N10    N     0.54312   0.49470   0.63644   0.01267  Uiso   1.00
Zn2    Zn    0.00000   0.00000   0.50000   0.01267  Uiso   1.00
H21    H     0.87850   0.85730   0.73560   0.01267  Uiso   1.00
H22    H     0.96680   0.80620   0.86180   0.01267  Uiso   1.00
H23    H     0.20280   0.87430   0.83240   0.01267  Uiso   1.00
H24    H     0.50210   0.23110   0.17970   0.01267  Uiso   1.00
H25    H     0.70820   0.33990   0.05510   0.01267  Uiso   1.00
H26    H     0.89090   0.36000   0.23660   0.01267  Uiso   1.00
H27    H     0.68950   0.25230   0.36680   0.01267  Uiso   1.00
H28    H     0.43490   0.98390   0.72840   0.01267  Uiso   1.00
H29    H     0.44010   0.08130   0.64100   0.01267  Uiso   1.00
H30    H     0.47100   0.99810   0.62230   0.01267  Uiso   1.00
H31    H     0.12150   0.14270   0.26440   0.01267  Uiso   1.00
H32    H     0.03320   0.19380   0.13820   0.01267  Uiso   1.00
H33    H     0.79720   0.12570   0.16760   0.01267  Uiso   1.00
H34    H     0.49790   0.76890   0.82030   0.01267  Uiso   1.00
H35    H     0.29180   0.66010   0.94490   0.01267  Uiso   1.00
H36    H     0.10910   0.64000   0.76340   0.01267  Uiso   1.00
H37    H     0.31050   0.74770   0.63320   0.01267  Uiso   1.00
H38    H     0.56510   0.01610   0.27160   0.01267  Uiso   1.00
H39    H     0.55990   0.91870   0.35900   0.01267  Uiso   1.00
H40    H     0.52900   0.00190   0.37770   0.01267  Uiso   1.00
C27    C     0.97520   0.88470   0.72310   0.01267  Uiso   1.00
C28    C     0.02730   0.85430   0.79860   0.01267  Uiso   1.00
C29    C     0.16770   0.89500   0.78080   0.01267  Uiso   1.00
C30    C     0.26000   0.96650   0.68820   0.01267  Uiso   1.00
C31    C     0.20070   0.99270   0.61330   0.01267  Uiso   1.00
C32    C     0.28267   0.06494   0.50773   0.01267  Uiso   1.00
C33    C     0.43370   0.16290   0.36920   0.01267  Uiso   1.00
C34    C     0.56890   0.23020   0.28980   0.01267  Uiso   1.00
C35    C     0.57960   0.25740   0.19340   0.01267  Uiso   1.00
C36    C     0.70440   0.32280   0.11900   0.01267  Uiso   1.00
C37    C     0.81080   0.33460   0.22470   0.01267  Uiso   1.00
C38    C     0.68990   0.26970   0.30350   0.01267  Uiso   1.00
C39    C     0.41550   0.01160   0.66820   0.01267  Uiso   1.00
C40    C     0.02480   0.11530   0.27690   0.01267  Uiso   1.00
C41    C     0.97270   0.14570   0.20140   0.01267  Uiso   1.00
C42    C     0.83230   0.10500   0.21920   0.01267  Uiso   1.00
C43    C     0.74000   0.03350   0.31180   0.01267  Uiso   1.00
C44    C     0.79930   0.00730   0.38670   0.01267  Uiso   1.00
C45    C     0.71733   0.93506   0.49227   0.01267  Uiso   1.00
C46    C     0.56630   0.83710   0.63080   0.01267  Uiso   1.00
C47    C     0.43110   0.76980   0.71020   0.01267  Uiso   1.00
C48    C     0.42040   0.74260   0.80660   0.01267  Uiso   1.00
C49    C     0.29560   0.67720   0.88100   0.01267  Uiso   1.00
C50    C     0.18920   0.66540   0.77530   0.01267  Uiso   1.00
C51    C     0.31010   0.73030   0.69650   0.01267  Uiso   1.00
C52    C     0.58450   0.98840   0.33180   0.01267  Uiso   1.00
N11    N     0.06104   0.95364   0.63112   0.01267  Uiso   1.00
N12    N     0.21155   0.07686   0.44441   0.01267  Uiso   1.00
N13    N     0.31108   0.14120   0.35326   0.01267  Uiso   1.00
N14    N     0.42167   0.11813   0.46552   0.01267  Uiso   1.00
N15    N     0.82044   0.36356   0.13114   0.01267  Uiso   1.00
N16    N     0.93896   0.04636   0.36888   0.01267  Uiso   1.00
N17    N     0.78845   0.92314   0.55559   0.01267  Uiso   1.00
N18    N     0.68892   0.85880   0.64674   0.01267  Uiso   1.00
N19    N     0.57833   0.88187   0.53448   0.01267  Uiso   1.00
N20    N     0.17956   0.63644   0.86886   0.01267  Uiso   1.00
Zn3    Zn    0.50000   0.50000   0.50000   0.01267  Uiso   1.00
H41    H     0.61410   0.73560   0.40710   0.01267  Uiso   1.00
H42    H     0.82860   0.86180   0.33200   0.01267  Uiso   1.00
H43    H     0.03520   0.83240   0.29330   0.01267  Uiso   1.00
H44    H     0.68180   0.17970   0.58920   0.01267  Uiso   1.00
H45    H     0.76330   0.05510   0.60500   0.01267  Uiso   1.00
H46    H     0.12750   0.23660   0.40340   0.01267  Uiso   1.00
H47    H     0.05630   0.36680   0.38090   0.01267  Uiso   1.00
H48    H     0.16330   0.72840   0.28770   0.01267  Uiso   1.00
H49    H     0.08110   0.64100   0.27770   0.01267  Uiso   1.00
H50    H     0.09330   0.62230   0.37960   0.01267  Uiso   1.00
H51    H     0.38590   0.26440   0.59290   0.01267  Uiso   1.00
H52    H     0.17140   0.13820   0.66800   0.01267  Uiso   1.00
H53    H     0.96480   0.16760   0.70670   0.01267  Uiso   1.00
H54    H     0.31820   0.82030   0.41080   0.01267  Uiso   1.00
H55    H     0.23670   0.94490   0.39500   0.01267  Uiso   1.00
H56    H     0.87250   0.76340   0.59660   0.01267  Uiso   1.00
H57    H     0.94370   0.63320   0.61910   0.01267  Uiso   1.00
H58    H     0.83670   0.27160   0.71230   0.01267  Uiso   1.00
H59    H     0.91890   0.35900   0.72230   0.01267  Uiso   1.00
H60    H     0.90670   0.37770   0.62040   0.01267  Uiso   1.00
C53    C     0.69830   0.72310   0.39220   0.01267  Uiso   1.00
C54    C     0.82590   0.79860   0.34710   0.01267  Uiso   1.00
C55    C     0.94850   0.78080   0.32420   0.01267  Uiso   1.00
C56    C     0.94820   0.68820   0.34530   0.01267  Uiso   1.00
C57    C     0.81400   0.61330   0.39400   0.01267  Uiso   1.00
C58    C     0.79040   0.50773   0.42733   0.01267  Uiso   1.00
C59    C     0.80290   0.36920   0.46790   0.01267  Uiso   1.00
C60    C     0.85870   0.28980   0.48000   0.01267  Uiso   1.00
C61    C     0.77300   0.19340   0.54920   0.01267  Uiso   1.00
C62    C     0.82340   0.11900   0.55820   0.01267  Uiso   1.00
C63    C     0.03550   0.22470   0.44070   0.01267  Uiso   1.00
C64    C     0.99340   0.30350   0.42680   0.01267  Uiso   1.00
C65    C     0.08370   0.66820   0.32020   0.01267  Uiso   1.00
C66    C     0.30170   0.27690   0.60780   0.01267  Uiso   1.00
C67    C     0.17410   0.20140   0.65290   0.01267  Uiso   1.00
C68    C     0.05150   0.21920   0.67580   0.01267  Uiso   1.00
C69    C     0.05180   0.31180   0.65470   0.01267  Uiso   1.00
C70    C     0.18600   0.38670   0.60600   0.01267  Uiso   1.00
C71    C     0.20960   0.49227   0.57267   0.01267  Uiso   1.00
C72    C     0.19710   0.63080   0.53210   0.01267  Uiso   1.00
C73    C     0.14130   0.71020   0.52000   0.01267  Uiso   1.00
C74    C     0.22700   0.80660   0.45080   0.01267  Uiso   1.00
C75    C     0.17660   0.88100   0.44180   0.01267  Uiso   1.00
C76    C     0.96450   0.77530   0.55930   0.01267  Uiso   1.00
C77    C     0.00660   0.69650   0.57320   0.01267  Uiso   1.00
C78    C     0.91630   0.33180   0.67980   0.01267  Uiso   1.00
N21    N     0.69216   0.63112   0.41524   0.01267  Uiso   1.00
N22    N     0.65596   0.44441   0.47873   0.01267  Uiso   1.00
N23    N     0.66434   0.35326   0.50554   0.01267  Uiso   1.00
N24    N     0.88719   0.46552   0.41635   0.01267  Uiso   1.00
N25    N     0.95158   0.13114   0.50530   0.01267  Uiso   1.00
N26    N     0.30784   0.36888   0.58476   0.01267  Uiso   1.00
N27    N     0.34404   0.55559   0.52127   0.01267  Uiso   1.00
N28    N     0.33566   0.64674   0.49446   0.01267  Uiso   1.00
N29    N     0.11281   0.53448   0.58365   0.01267  Uiso   1.00
N30    N     0.04842   0.86886   0.49470   0.01267  Uiso   1.00
