data_BUSMUY_clean
_audit_creation_date              2014-07-02
_audit_creation_method            'Materials Studio'
_symmetry_space_group_name_H-M    'P1'
_symmetry_Int_Tables_number       1
_symmetry_cell_setting            triclinic
loop_
_symmetry_equiv_pos_as_xyz
  x,y,z
_cell_length_a                    9.4130
_cell_length_b                    16.5933
_cell_length_c                    16.5933
_cell_angle_alpha                 63.4892
_cell_angle_beta                  79.1002
_cell_angle_gamma                 100.9000
loop_
_atom_site_label
_atom_site_type_symbol
_atom_site_fract_x
_atom_site_fract_y
_atom_site_fract_z
_atom_site_U_iso_or_equiv
_atom_site_adp_type
_atom_site_occupancy
Co1    Co    0.50000   0.00000   0.50000   0.01267  Uiso   1.00
Co2    Co    0.00000   0.50000   0.50000   0.01267  Uiso   1.00
Co3    Co    0.50000   0.50000   0.00000   0.01267  Uiso   1.00
H1     H     0.40110   0.86800   0.72950   0.01267  Uiso   1.00
H2     H     0.51270   0.83460   0.84610   0.01267  Uiso   1.00
H3     H     0.76770   0.91100   0.80850   0.01267  Uiso   1.00
H4     H     0.90580   0.01880   0.65200   0.01267  Uiso   1.00
H5     H     0.22840   0.25510   0.35160   0.01267  Uiso   1.00
H6     H     0.42250   0.37020   0.22190   0.01267  Uiso   1.00
H7     H     0.19790   0.35080   0.05610   0.01267  Uiso   1.00
H8     H     0.99380   0.23860   0.18210   0.01267  Uiso   1.00
H9     H     0.13060   0.72950   0.40250   0.01267  Uiso   1.00
H10    H     0.35880   0.84610   0.31930   0.01267  Uiso   1.00
H11    H     0.57620   0.80850   0.28050   0.01267  Uiso   1.00
H12    H     0.55780   0.65200   0.32920   0.01267  Uiso   1.00
H13    H     0.58000   0.35160   0.39330   0.01267  Uiso   1.00
H14    H     0.64440   0.22190   0.40790   0.01267  Uiso   1.00
H15    H     0.25400   0.05610   0.59310   0.01267  Uiso   1.00
H16    H     0.17590   0.18210   0.57930   0.01267  Uiso   1.00
H17    H     0.53310   0.40250   0.86800   0.01267  Uiso   1.00
H18    H     0.67810   0.31930   0.83460   0.01267  Uiso   1.00
H19    H     0.85670   0.28050   0.91100   0.01267  Uiso   1.00
H20    H     0.88700   0.32920   0.01880   0.01267  Uiso   1.00
H21    H     0.97330   0.39330   0.25510   0.01267  Uiso   1.00
H22    H     0.05230   0.40790   0.37020   0.01267  Uiso   1.00
H23    H     0.84710   0.59310   0.35080   0.01267  Uiso   1.00
H24    H     0.75520   0.57930   0.23860   0.01267  Uiso   1.00
H25    H     0.59890   0.13200   0.27050   0.01267  Uiso   1.00
H26    H     0.48730   0.16540   0.15390   0.01267  Uiso   1.00
H27    H     0.23230   0.08900   0.19150   0.01267  Uiso   1.00
H28    H     0.09420   0.98120   0.34800   0.01267  Uiso   1.00
H29    H     0.77160   0.74490   0.64840   0.01267  Uiso   1.00
H30    H     0.57750   0.62980   0.77810   0.01267  Uiso   1.00
H31    H     0.80210   0.64920   0.94390   0.01267  Uiso   1.00
H32    H     0.00620   0.76140   0.81790   0.01267  Uiso   1.00
H33    H     0.86940   0.27050   0.59750   0.01267  Uiso   1.00
H34    H     0.64120   0.15390   0.68070   0.01267  Uiso   1.00
H35    H     0.42380   0.19150   0.71950   0.01267  Uiso   1.00
H36    H     0.44220   0.34800   0.67080   0.01267  Uiso   1.00
H37    H     0.42000   0.64840   0.60670   0.01267  Uiso   1.00
H38    H     0.35560   0.77810   0.59210   0.01267  Uiso   1.00
H39    H     0.74600   0.94390   0.40690   0.01267  Uiso   1.00
H40    H     0.82410   0.81790   0.42070   0.01267  Uiso   1.00
H41    H     0.46690   0.59750   0.13200   0.01267  Uiso   1.00
H42    H     0.32190   0.68070   0.16540   0.01267  Uiso   1.00
H43    H     0.14330   0.71950   0.08900   0.01267  Uiso   1.00
H44    H     0.11300   0.67080   0.98120   0.01267  Uiso   1.00
H45    H     0.02670   0.60670   0.74490   0.01267  Uiso   1.00
H46    H     0.94770   0.59210   0.62980   0.01267  Uiso   1.00
H47    H     0.15290   0.40690   0.64920   0.01267  Uiso   1.00
H48    H     0.24480   0.42070   0.76140   0.01267  Uiso   1.00
C1     C     0.50403   0.89901   0.71332   0.01267  Uiso   1.00
C2     C     0.56993   0.87869   0.78360   0.01267  Uiso   1.00
C3     C     0.72129   0.92375   0.76128   0.01267  Uiso   1.00
C4     C     0.80278   0.98759   0.66885   0.01267  Uiso   1.00
C5     C     0.73013   0.00514   0.60075   0.01267  Uiso   1.00
C6     C     0.80630   0.06946   0.49896   0.01267  Uiso   1.00
C7     C     0.95372   0.16340   0.36394   0.01267  Uiso   1.00
C8     C     0.08664   0.23353   0.28251   0.01267  Uiso   1.00
C9     C     0.21819   0.27430   0.29163   0.01267  Uiso   1.00
C10    C     0.33489   0.34318   0.21321   0.01267  Uiso   1.00
C11    C     0.20395   0.33245   0.11680   0.01267  Uiso   1.00
C12    C     0.08091   0.26409   0.19226   0.01267  Uiso   1.00
C13    C     0.21735   0.71332   0.38767   0.01267  Uiso   1.00
C14    C     0.35353   0.78360   0.33771   0.01267  Uiso   1.00
C15    C     0.48257   0.76128   0.31497   0.01267  Uiso   1.00
C16    C     0.47163   0.66885   0.34356   0.01267  Uiso   1.00
C17    C     0.33088   0.60075   0.39411   0.01267  Uiso   1.00
C18    C     0.30526   0.49896   0.43158   0.01267  Uiso   1.00
C19    C     0.31766   0.36394   0.47266   0.01267  Uiso   1.00
C20    C     0.36915   0.28251   0.48396   0.01267  Uiso   1.00
C21    C     0.50982   0.29163   0.43407   0.01267  Uiso   1.00
C22    C     0.54810   0.21321   0.44361   0.01267  Uiso   1.00
C23    C     0.32075   0.11680   0.55075   0.01267  Uiso   1.00
C24    C     0.27317   0.19226   0.54365   0.01267  Uiso   1.00
C25    C     0.60502   0.38767   0.89901   0.01267  Uiso   1.00
C26    C     0.69124   0.33771   0.87869   0.01267  Uiso   1.00
C27    C     0.79754   0.31497   0.92375   0.01267  Uiso   1.00
C28    C     0.81519   0.34356   0.98759   0.01267  Uiso   1.00
C29    C     0.72499   0.39411   0.00514   0.01267  Uiso   1.00
C30    C     0.73684   0.43158   0.06946   0.01267  Uiso   1.00
C31    C     0.79032   0.47266   0.16340   0.01267  Uiso   1.00
C32    C     0.85311   0.48396   0.23353   0.01267  Uiso   1.00
C33    C     0.94389   0.43407   0.27430   0.01267  Uiso   1.00
C34    C     0.99171   0.44361   0.34318   0.01267  Uiso   1.00
C35    C     0.87150   0.55075   0.33245   0.01267  Uiso   1.00
C36    C     0.81682   0.54365   0.26409   0.01267  Uiso   1.00
C37    C     0.49597   0.10099   0.28668   0.01267  Uiso   1.00
C38    C     0.43007   0.12131   0.21640   0.01267  Uiso   1.00
C39    C     0.27871   0.07625   0.23872   0.01267  Uiso   1.00
C40    C     0.19722   0.01241   0.33115   0.01267  Uiso   1.00
C41    C     0.26987   0.99486   0.39925   0.01267  Uiso   1.00
C42    C     0.19370   0.93054   0.50104   0.01267  Uiso   1.00
C43    C     0.04628   0.83660   0.63606   0.01267  Uiso   1.00
C44    C     0.91336   0.76647   0.71749   0.01267  Uiso   1.00
C45    C     0.78181   0.72570   0.70837   0.01267  Uiso   1.00
C46    C     0.66511   0.65682   0.78679   0.01267  Uiso   1.00
C47    C     0.79605   0.66755   0.88320   0.01267  Uiso   1.00
C48    C     0.91909   0.73591   0.80774   0.01267  Uiso   1.00
C49    C     0.78265   0.28668   0.61233   0.01267  Uiso   1.00
C50    C     0.64647   0.21640   0.66229   0.01267  Uiso   1.00
C51    C     0.51743   0.23872   0.68503   0.01267  Uiso   1.00
C52    C     0.52837   0.33115   0.65644   0.01267  Uiso   1.00
C53    C     0.66912   0.39925   0.60589   0.01267  Uiso   1.00
C54    C     0.69474   0.50104   0.56842   0.01267  Uiso   1.00
C55    C     0.68234   0.63606   0.52734   0.01267  Uiso   1.00
C56    C     0.63085   0.71749   0.51604   0.01267  Uiso   1.00
C57    C     0.49018   0.70837   0.56593   0.01267  Uiso   1.00
C58    C     0.45190   0.78679   0.55639   0.01267  Uiso   1.00
C59    C     0.67925   0.88320   0.44925   0.01267  Uiso   1.00
C60    C     0.72683   0.80774   0.45635   0.01267  Uiso   1.00
C61    C     0.39498   0.61233   0.10099   0.01267  Uiso   1.00
C62    C     0.30876   0.66229   0.12131   0.01267  Uiso   1.00
C63    C     0.20246   0.68503   0.07625   0.01267  Uiso   1.00
C64    C     0.18481   0.65644   0.01241   0.01267  Uiso   1.00
C65    C     0.27501   0.60589   0.99486   0.01267  Uiso   1.00
C66    C     0.26316   0.56842   0.93054   0.01267  Uiso   1.00
C67    C     0.20968   0.52734   0.83660   0.01267  Uiso   1.00
C68    C     0.14689   0.51604   0.76647   0.01267  Uiso   1.00
C69    C     0.05611   0.56593   0.72570   0.01267  Uiso   1.00
C70    C     0.00829   0.55639   0.65682   0.01267  Uiso   1.00
C71    C     0.12850   0.44925   0.66755   0.01267  Uiso   1.00
C72    C     0.18318   0.45635   0.73591   0.01267  Uiso   1.00
N1     N     0.58077   0.96153   0.62242   0.01267  Uiso   1.00
N2     N     0.72603   0.07331   0.43984   0.01267  Uiso   1.00
N3     N     0.82235   0.13489   0.35064   0.01267  Uiso   1.00
N4     N     0.95126   0.12447   0.45539   0.01267  Uiso   1.00
N5     N     0.33037   0.37386   0.12485   0.01267  Uiso   1.00
N6     N     0.20319   0.62242   0.41605   0.01267  Uiso   1.00
N7     N     0.16587   0.43984   0.48685   0.01267  Uiso   1.00
N8     N     0.17299   0.35064   0.51447   0.01267  Uiso   1.00
N9     N     0.40665   0.45539   0.42014   0.01267  Uiso   1.00
N10    N     0.45522   0.12485   0.50129   0.01267  Uiso   1.00
N11    N     0.61924   0.41605   0.96153   0.01267  Uiso   1.00
N12    N     0.65272   0.48685   0.07331   0.01267  Uiso   1.00
N13    N     0.68746   0.51447   0.13489   0.01267  Uiso   1.00
N14    N     0.82679   0.42014   0.12447   0.01267  Uiso   1.00
N15    N     0.95651   0.50129   0.37386   0.01267  Uiso   1.00
N16    N     0.41923   0.03847   0.37758   0.01267  Uiso   1.00
N17    N     0.27397   0.92669   0.56016   0.01267  Uiso   1.00
N18    N     0.17765   0.86511   0.64936   0.01267  Uiso   1.00
N19    N     0.04874   0.87553   0.54461   0.01267  Uiso   1.00
N20    N     0.66963   0.62614   0.87515   0.01267  Uiso   1.00
N21    N     0.79681   0.37758   0.58395   0.01267  Uiso   1.00
N22    N     0.83413   0.56016   0.51315   0.01267  Uiso   1.00
N23    N     0.82701   0.64936   0.48553   0.01267  Uiso   1.00
N24    N     0.59335   0.54461   0.57986   0.01267  Uiso   1.00
N25    N     0.54478   0.87515   0.49871   0.01267  Uiso   1.00
N26    N     0.38076   0.58395   0.03847   0.01267  Uiso   1.00
N27    N     0.34728   0.51315   0.92669   0.01267  Uiso   1.00
N28    N     0.31254   0.48553   0.86511   0.01267  Uiso   1.00
N29    N     0.17321   0.57986   0.87553   0.01267  Uiso   1.00
N30    N     0.04349   0.49871   0.62614   0.01267  Uiso   1.00
