data_CAYBAH_clean
_audit_creation_date              2014-07-02
_audit_creation_method            'Materials Studio'
_symmetry_space_group_name_H-M    'P1'
_symmetry_Int_Tables_number       1
_symmetry_cell_setting            triclinic
loop_
_symmetry_equiv_pos_as_xyz
  x,y,z
_cell_length_a                    11.8447
_cell_length_b                    11.8447
_cell_length_c                    12.6567
_cell_angle_alpha                 117.9000
_cell_angle_beta                  117.9000
_cell_angle_gamma                 90.0000
loop_
_atom_site_label
_atom_site_type_symbol
_atom_site_fract_x
_atom_site_fract_y
_atom_site_fract_z
_atom_site_U_iso_or_equiv
_atom_site_adp_type
_atom_site_occupancy
Cu1    Cu    0.12500   0.87500   0.75000   0.01267  Uiso   1.00
Cu2    Cu    0.87500   0.12500   0.25000   0.01267  Uiso   1.00
Cu3    Cu    0.00000   0.00000   0.50000   0.01267  Uiso   1.00
Cu4    Cu    0.00000   0.50000   0.50000   0.01267  Uiso   1.00
Cu5    Cu    0.00000   0.00000   0.00000   0.01267  Uiso   1.00
Cu6    Cu    0.50000   0.00000  -0.00000   0.01267  Uiso   1.00
H1     H     0.82730   0.15320   0.64560   0.01267  Uiso   1.00
H2     H     0.31830   0.49240   0.64560   0.01267  Uiso   1.00
H3     H     0.15320   0.31830   0.14560   0.01267  Uiso   1.00
H4     H     0.49240   0.82730   0.14560   0.01267  Uiso   1.00
H5     H     0.68170   0.84680   0.35440   0.01267  Uiso   1.00
H6     H     0.17270   0.50760   0.35440   0.01267  Uiso   1.00
H7     H     0.50760   0.68170   0.85440   0.01267  Uiso   1.00
H8     H     0.84680   0.17270   0.85440   0.01267  Uiso   1.00
H9     H     0.17270   0.84680   0.35440   0.01267  Uiso   1.00
H10    H     0.68170   0.50760   0.35440   0.01267  Uiso   1.00
H11    H     0.84680   0.68170   0.85440   0.01267  Uiso   1.00
H12    H     0.50760   0.17270   0.85440   0.01267  Uiso   1.00
H13    H     0.31830   0.15320   0.64560   0.01267  Uiso   1.00
H14    H     0.82730   0.49240   0.64560   0.01267  Uiso   1.00
H15    H     0.49240   0.31830   0.14560   0.01267  Uiso   1.00
H16    H     0.15320   0.82730   0.14560   0.01267  Uiso   1.00
H17    H     0.85420   0.70750   0.20840   0.01267  Uiso   1.00
H18    H     0.85420   0.50090   0.20840   0.01267  Uiso   1.00
H19    H     0.70750   0.85420   0.70840   0.01267  Uiso   1.00
H20    H     0.50090   0.85420   0.70840   0.01267  Uiso   1.00
H21    H     0.14580   0.29250   0.79160   0.01267  Uiso   1.00
H22    H     0.14580   0.49910   0.79160   0.01267  Uiso   1.00
H23    H     0.49910   0.14580   0.29160   0.01267  Uiso   1.00
H24    H     0.29250   0.14580   0.29160   0.01267  Uiso   1.00
C1     C     0.87670   0.11260   0.69220   0.01267  Uiso   1.00
C2     C     0.31550   0.57960   0.69220   0.01267  Uiso   1.00
C3     C     0.11260   0.31550   0.19220   0.01267  Uiso   1.00
C4     C     0.57960   0.87670   0.19220   0.01267  Uiso   1.00
C5     C     0.68450   0.88740   0.30780   0.01267  Uiso   1.00
C6     C     0.12330   0.42040   0.30780   0.01267  Uiso   1.00
C7     C     0.42040   0.68450   0.80780   0.01267  Uiso   1.00
C8     C     0.88740   0.12330   0.80780   0.01267  Uiso   1.00
C9     C     0.12330   0.88740   0.30780   0.01267  Uiso   1.00
C10    C     0.68450   0.42040   0.30780   0.01267  Uiso   1.00
C11    C     0.88740   0.68450   0.80780   0.01267  Uiso   1.00
C12    C     0.42040   0.12330   0.80780   0.01267  Uiso   1.00
C13    C     0.31550   0.11260   0.69220   0.01267  Uiso   1.00
C14    C     0.87670   0.57960   0.69220   0.01267  Uiso   1.00
C15    C     0.57960   0.31550   0.19220   0.01267  Uiso   1.00
C16    C     0.11260   0.87670   0.19220   0.01267  Uiso   1.00
C17    C     0.89380   0.70080   0.28760   0.01267  Uiso   1.00
C18    C     0.89380   0.58680   0.28760   0.01267  Uiso   1.00
C19    C     0.70080   0.89380   0.78760   0.01267  Uiso   1.00
C20    C     0.58680   0.89380   0.78760   0.01267  Uiso   1.00
C21    C     0.10620   0.29920   0.71240   0.01267  Uiso   1.00
C22    C     0.10620   0.41320   0.71240   0.01267  Uiso   1.00
C23    C     0.41320   0.10620   0.21240   0.01267  Uiso   1.00
C24    C     0.29920   0.10620   0.21240   0.01267  Uiso   1.00
N1     N     0.94950   0.03320   0.65580   0.01267  Uiso   1.00
N2     N     0.20630   0.62260   0.65580   0.01267  Uiso   1.00
N3     N     0.03320   0.20630   0.15580   0.01267  Uiso   1.00
N4     N     0.62260   0.94950   0.15580   0.01267  Uiso   1.00
N5     N     0.79370   0.96680   0.34420   0.01267  Uiso   1.00
N6     N     0.05050   0.37740   0.34420   0.01267  Uiso   1.00
N7     N     0.37740   0.79370   0.84420   0.01267  Uiso   1.00
N8     N     0.96680   0.05050   0.84420   0.01267  Uiso   1.00
N9     N     0.05050   0.96680   0.34420   0.01267  Uiso   1.00
N10    N     0.79370   0.37740   0.34420   0.01267  Uiso   1.00
N11    N     0.96680   0.79370   0.84420   0.01267  Uiso   1.00
N12    N     0.37740   0.05050   0.84420   0.01267  Uiso   1.00
N13    N     0.20630   0.03320   0.65580   0.01267  Uiso   1.00
N14    N     0.94950   0.62260   0.65580   0.01267  Uiso   1.00
N15    N     0.62260   0.20630   0.15580   0.01267  Uiso   1.00
N16    N     0.03320   0.94950   0.15580   0.01267  Uiso   1.00
N17    N     0.00130   0.75130   0.50260   0.01267  Uiso   1.00
N18    N     0.75130   0.00130   0.00260   0.01267  Uiso   1.00
N19    N     0.99870   0.24870   0.49740   0.01267  Uiso   1.00
N20    N     0.24870   0.99870   0.99740   0.01267  Uiso   1.00
N21    N     0.00320   0.99680   0.75000   0.01267  Uiso   1.00
N22    N     0.24680   0.75320   0.75000   0.01267  Uiso   1.00
N23    N     0.99680   0.24680   0.25000   0.01267  Uiso   1.00
N24    N     0.75320   0.00320   0.25000   0.01267  Uiso   1.00
N25    N     0.99680   0.00320   0.25000   0.01267  Uiso   1.00
N26    N     0.75320   0.24680   0.25000   0.01267  Uiso   1.00
N27    N     0.00320   0.75320   0.75000   0.01267  Uiso   1.00
N28    N     0.24680   0.99680   0.75000   0.01267  Uiso   1.00
N29    N     0.96060   0.80210   0.42120   0.01267  Uiso   1.00
N30    N     0.96060   0.61910   0.42120   0.01267  Uiso   1.00
N31    N     0.80210   0.96060   0.92120   0.01267  Uiso   1.00
N32    N     0.61910   0.96060   0.92120   0.01267  Uiso   1.00
N33    N     0.03940   0.19790   0.57880   0.01267  Uiso   1.00
N34    N     0.03940   0.38090   0.57880   0.01267  Uiso   1.00
N35    N     0.38090   0.03940   0.07880   0.01267  Uiso   1.00
N36    N     0.19790   0.03940   0.07880   0.01267  Uiso   1.00
