data_PODWIQ_clean
_audit_creation_date              2015-10-16
_audit_creation_method            'Materials Studio'
_symmetry_space_group_name_H-M    'P1'
_symmetry_Int_Tables_number       1
_symmetry_cell_setting            triclinic
loop_
_symmetry_equiv_pos_as_xyz
  x,y,z
_cell_length_a                    9.5203
_cell_length_b                    18.7214
_cell_length_c                    18.7214
_cell_angle_alpha                 62.8127
_cell_angle_beta                  80.2408
_cell_angle_gamma                 99.7592
loop_
_atom_site_label
_atom_site_type_symbol
_atom_site_fract_x
_atom_site_fract_y
_atom_site_fract_z
_atom_site_U_iso_or_equiv
_atom_site_adp_type
_atom_site_occupancy
Cu1    Cu    0.06839   0.60880   0.44089   0.01267  Uiso   1.00
Cu2    Cu    0.92355   0.62564   0.32465   0.01267  Uiso   1.00
Cu3    Cu    0.54041   0.04969   0.39120   0.01267  Uiso   1.00
Cu4    Cu    0.93161   0.39120   0.55911   0.01267  Uiso   1.00
Cu5    Cu    0.24820   0.32465   0.04971   0.01267  Uiso   1.00
Cu6    Cu    0.07645   0.37436   0.67535   0.01267  Uiso   1.00
Cu7    Cu    0.75180   0.67535   0.95029   0.01267  Uiso   1.00
Cu8    Cu    0.50928   0.44089   0.95031   0.01267  Uiso   1.00
Cu9    Cu    0.45959   0.95031   0.60880   0.01267  Uiso   1.00
Cu10   Cu    0.49072   0.55911   0.04969   0.01267  Uiso   1.00
Cu11   Cu    0.70209   0.95029   0.37436   0.01267  Uiso   1.00
Cu12   Cu    0.29791   0.04971   0.62564   0.01267  Uiso   1.00
H1     H     0.58330   0.59000   0.37820   0.01267  Uiso   1.00
H2     H     0.31900   0.80500   0.84180   0.01267  Uiso   1.00
H3     H     0.44020   0.19340   0.41430   0.01267  Uiso   1.00
H4     H     0.55040   0.66780   0.70400   0.01267  Uiso   1.00
H5     H     0.99330   0.03180   0.59000   0.01267  Uiso   1.00
H6     H     0.89080   0.91030   0.90170   0.01267  Uiso   1.00
H7     H     0.11740   0.37180   0.33220   0.01267  Uiso   1.00
H8     H     0.74560   0.29600   0.37180   0.01267  Uiso   1.00
H9     H     0.68420   0.81010   0.78420   0.01267  Uiso   1.00
H10    H     0.20750   0.09830   0.81200   0.01267  Uiso   1.00
H11    H     0.98050   0.18800   0.91030   0.01267  Uiso   1.00
H12    H     0.11640   0.68860   0.77130   0.01267  Uiso   1.00
H13    H     0.46840   0.78420   0.40570   0.01267  Uiso   1.00
H14    H     0.85450   0.41430   0.39230   0.01267  Uiso   1.00
H15    H     0.83920   0.15820   0.64680   0.01267  Uiso   1.00
H16    H     0.78720   0.23060   0.97990   0.01267  Uiso   1.00
H17    H     0.87410   0.40570   0.81010   0.01267  Uiso   1.00
H18    H     0.39290   0.65530   0.83370   0.01267  Uiso   1.00
H19    H     0.53160   0.21580   0.59430   0.01267  Uiso   1.00
H20    H     0.15890   0.14360   0.49240   0.01267  Uiso   1.00
H21    H     0.83880   0.03970   0.63000   0.01267  Uiso   1.00
H22    H     0.50660   0.36190   0.51780   0.01267  Uiso   1.00
H23    H     0.99130   0.23140   0.60900   0.01267  Uiso   1.00
H24    H     0.24010   0.84040   0.76860   0.01267  Uiso   1.00
H25    H     0.24680   0.39230   0.19340   0.01267  Uiso   1.00
H26    H     0.98470   0.63600   0.85640   0.01267  Uiso   1.00
H27    H     0.97560   0.48220   0.87970   0.01267  Uiso   1.00
H28    H     0.44340   0.21050   0.76940   0.01267  Uiso   1.00
H29    H     0.48600   0.64680   0.19500   0.01267  Uiso   1.00
H30    H     0.75990   0.15960   0.23140   0.01267  Uiso   1.00
H31    H     0.01950   0.81200   0.08970   0.01267  Uiso   1.00
H32    H     0.88770   0.77130   0.54010   0.01267  Uiso   1.00
H33    H     0.74870   0.46640   0.18410   0.01267  Uiso   1.00
H34    H     0.25440   0.70400   0.62820   0.01267  Uiso   1.00
H35    H     0.96150   0.37820   0.03180   0.01267  Uiso   1.00
H36    H     0.26240   0.48900   0.34470   0.01267  Uiso   1.00
H37    H     0.42780   0.54010   0.68860   0.01267  Uiso   1.00
H38    H     0.88360   0.31140   0.22870   0.01267  Uiso   1.00
H39    H     0.55980   0.80660   0.58570   0.01267  Uiso   1.00
H40    H     0.15320   0.93460   0.82550   0.01267  Uiso   1.00
H41    H     0.31580   0.18990   0.21580   0.01267  Uiso   1.00
H42    H     0.44960   0.33220   0.29600   0.01267  Uiso   1.00
H43    H     0.10920   0.08970   0.09830   0.01267  Uiso   1.00
H44    H     0.60710   0.34470   0.16630   0.01267  Uiso   1.00
H45    H     0.78140   0.76010   0.06540   0.01267  Uiso   1.00
H46    H     0.84680   0.06540   0.17450   0.01267  Uiso   1.00
H47    H     0.75320   0.60770   0.80660   0.01267  Uiso   1.00
H48    H     0.41670   0.41000   0.62180   0.01267  Uiso   1.00
H49    H     0.02130   0.17450   0.76010   0.01267  Uiso   1.00
H50    H     0.20090   0.66970   0.96030   0.01267  Uiso   1.00
H51    H     0.22660   0.83370   0.51100   0.01267  Uiso   1.00
H52    H     0.14470   0.12030   0.36190   0.01267  Uiso   1.00
H53    H     0.49340   0.63810   0.48220   0.01267  Uiso   1.00
H54    H     0.01530   0.36400   0.14360   0.01267  Uiso   1.00
H55    H     0.51400   0.35320   0.80500   0.01267  Uiso   1.00
H56    H     0.71770   0.65050   0.53360   0.01267  Uiso   1.00
H57    H     0.14550   0.58570   0.60770   0.01267  Uiso   1.00
H58    H     0.79910   0.33030   0.03970   0.01267  Uiso   1.00
H59    H     0.00670   0.96820   0.41000   0.01267  Uiso   1.00
H60    H     0.12590   0.59430   0.18990   0.01267  Uiso   1.00
H61    H     0.93280   0.18410   0.34950   0.01267  Uiso   1.00
H62    H     0.00870   0.76860   0.39100   0.01267  Uiso   1.00
H63    H     0.85530   0.87970   0.63810   0.01267  Uiso   1.00
H64    H     0.34870   0.50760   0.63600   0.01267  Uiso   1.00
H65    H     0.46880   0.63000   0.33030   0.01267  Uiso   1.00
H66    H     0.25130   0.53360   0.81590   0.01267  Uiso   1.00
H67    H     0.16080   0.84180   0.35320   0.01267  Uiso   1.00
H68    H     0.60030   0.60900   0.15960   0.01267  Uiso   1.00
H69    H     0.28230   0.34950   0.46640   0.01267  Uiso   1.00
H70    H     0.21860   0.23990   0.93460   0.01267  Uiso   1.00
H71    H     0.77340   0.16630   0.48900   0.01267  Uiso   1.00
H72    H     0.65130   0.49240   0.36400   0.01267  Uiso   1.00
H73    H     0.57220   0.45990   0.31140   0.01267  Uiso   1.00
H74    H     0.73760   0.51100   0.65530   0.01267  Uiso   1.00
H75    H     0.76710   0.97990   0.78950   0.01267  Uiso   1.00
H76    H     0.97870   0.82550   0.23990   0.01267  Uiso   1.00
H77    H     0.53120   0.37000   0.66970   0.01267  Uiso   1.00
H78    H     0.84110   0.85640   0.50760   0.01267  Uiso   1.00
H79    H     0.23290   0.02010   0.21050   0.01267  Uiso   1.00
H80    H     0.88260   0.62820   0.66780   0.01267  Uiso   1.00
H81    H     0.79250   0.90170   0.18800   0.01267  Uiso   1.00
H82    H     0.16120   0.96030   0.37000   0.01267  Uiso   1.00
H83    H     0.06720   0.81590   0.65050   0.01267  Uiso   1.00
H84    H     0.39970   0.39100   0.84040   0.01267  Uiso   1.00
H85    H     0.11230   0.22870   0.45990   0.01267  Uiso   1.00
H86    H     0.03850   0.62180   0.96820   0.01267  Uiso   1.00
H87    H     0.55660   0.78950   0.23060   0.01267  Uiso   1.00
H88    H     0.02440   0.51780   0.12030   0.01267  Uiso   1.00
H89    H     0.68100   0.19500   0.15820   0.01267  Uiso   1.00
H90    H     0.21280   0.76940   0.02010   0.01267  Uiso   1.00
C1     C     0.64858   0.78115   0.24061   0.01267  Uiso   1.00
C2     C     0.88919   0.24061   0.97824   0.01267  Uiso   1.00
C3     C     0.01592   0.19714   0.30518   0.01267  Uiso   1.00
C4     C     0.18122   0.50232   0.80286   0.01267  Uiso   1.00
C5     C     0.97614   0.43206   0.79854   0.01267  Uiso   1.00
C6     C     0.11081   0.75939   0.02176   0.01267  Uiso   1.00
C7     C     0.87441   0.75337   0.04604   0.01267  Uiso   1.00
C8     C     0.77697   0.84277   0.21736   0.01267  Uiso   1.00
C9     C     0.49220   0.21538   0.35738   0.01267  Uiso   1.00
C10    C     0.49623   0.29250   0.29251   0.01267  Uiso   1.00
C11    C     0.86743   0.97824   0.78115   0.01267  Uiso   1.00
C12    C     0.72318   0.57276   0.78462   0.01267  Uiso   1.00
C13    C     0.57035   0.62346   0.32211   0.01267  Uiso   1.00
C14    C     0.12559   0.24663   0.95396   0.01267  Uiso   1.00
C15    C     0.86886   0.83787   0.68759   0.01267  Uiso   1.00
C16    C     0.35142   0.21885   0.75939   0.01267  Uiso   1.00
C17    C     0.92491   0.19463   0.59650   0.01267  Uiso   1.00
C18    C     0.80434   0.22193   0.47911   0.01267  Uiso   1.00
C19    C     0.64252   0.50812   0.30706   0.01267  Uiso   1.00
C20    C     0.05042   0.69294   0.81518   0.01267  Uiso   1.00
C21    C     0.06580   0.06013   0.15723   0.01267  Uiso   1.00
C22    C     0.05311   0.94557   0.37654   0.01267  Uiso   1.00
C23    C     0.96901   0.52546   0.16213   0.01267  Uiso   1.00
C24    C     0.35748   0.49188   0.69294   0.01267  Uiso   1.00
C25    C     0.71655   0.52089   0.70104   0.01267  Uiso   1.00
C26    C     0.10754   0.67789   0.94557   0.01267  Uiso   1.00
C27    C     0.00567   0.78264   0.06013   0.01267  Uiso   1.00
C28    C     0.13114   0.16213   0.31241   0.01267  Uiso   1.00
C29    C     0.26972   0.79113   0.80537   0.01267  Uiso   1.00
C30    C     0.47859   0.40350   0.79113   0.01267  Uiso   1.00
C31    C     0.50780   0.78462   0.64262   0.01267  Uiso   1.00
C32    C     0.87896   0.79941   0.24663   0.01267  Uiso   1.00
C33    C     0.98408   0.80286   0.69482   0.01267  Uiso   1.00
C34    C     0.89246   0.32211   0.05443   0.01267  Uiso   1.00
C35    C     0.54408   0.76940   0.43206   0.01267  Uiso   1.00
C36    C     0.86560   0.81518   0.49188   0.01267  Uiso   1.00
C37    C     0.27682   0.42724   0.21538   0.01267  Uiso   1.00
C38    C     0.77468   0.79854   0.76940   0.01267  Uiso   1.00
C39    C     0.32110   0.30518   0.49768   0.01267  Uiso   1.00
C40    C     0.21126   0.70749   0.58501   0.01267  Uiso   1.00
C41    C     0.41759   0.70104   0.77807   0.01267  Uiso   1.00
C42    C     0.50377   0.70750   0.70749   0.01267  Uiso   1.00
C43    C     0.12104   0.20059   0.75337   0.01267  Uiso   1.00
C44    C     0.67890   0.69482   0.50232   0.01267  Uiso   1.00
C45    C     0.79627   0.58501   0.70750   0.01267  Uiso   1.00
C46    C     0.42965   0.37654   0.67789   0.01267  Uiso   1.00
C47    C     0.93420   0.93987   0.84277   0.01267  Uiso   1.00
C48    C     0.15042   0.64262   0.57276   0.01267  Uiso   1.00
C49    C     0.07955   0.95396   0.79941   0.01267  Uiso   1.00
C50    C     0.58241   0.29896   0.22193   0.01267  Uiso   1.00
C51    C     0.44355   0.31241   0.52546   0.01267  Uiso   1.00
C52    C     0.19566   0.77807   0.52089   0.01267  Uiso   1.00
C53    C     0.81878   0.49768   0.19714   0.01267  Uiso   1.00
C54    C     0.55645   0.68759   0.47454   0.01267  Uiso   1.00
C55    C     0.94958   0.30706   0.18482   0.01267  Uiso   1.00
C56    C     0.22303   0.15723   0.78264   0.01267  Uiso   1.00
C57    C     0.73028   0.20887   0.19463   0.01267  Uiso   1.00
C58    C     0.45592   0.23060   0.56794   0.01267  Uiso   1.00
C59    C     0.99433   0.21736   0.93987   0.01267  Uiso   1.00
C60    C     0.03099   0.47454   0.83787   0.01267  Uiso   1.00
C61    C     0.13440   0.18482   0.50812   0.01267  Uiso   1.00
C62    C     0.13257   0.02176   0.21885   0.01267  Uiso   1.00
C63    C     0.02386   0.56794   0.20146   0.01267  Uiso   1.00
C64    C     0.52141   0.59650   0.20887   0.01267  Uiso   1.00
C65    C     0.92045   0.04604   0.20059   0.01267  Uiso   1.00
C66    C     0.28345   0.47911   0.29896   0.01267  Uiso   1.00
C67    C     0.20373   0.41499   0.29250   0.01267  Uiso   1.00
C68    C     0.84958   0.35738   0.42724   0.01267  Uiso   1.00
C69    C     0.94689   0.05443   0.62346   0.01267  Uiso   1.00
C70    C     0.78874   0.29251   0.41499   0.01267  Uiso   1.00
C71    C     0.07509   0.80537   0.40350   0.01267  Uiso   1.00
C72    C     0.22532   0.20146   0.23060   0.01267  Uiso   1.00
I1     I     0.71819   0.51042   0.00498   0.01267  Uiso   1.00
I2     I     0.27683   0.99502   0.51540   0.01267  Uiso   1.00
I3     I     0.49176   0.98416   0.29905   0.01267  Uiso   1.00
I4     I     0.20919   0.70095   0.28321   0.01267  Uiso   1.00
I5     I     0.79223   0.51540   0.48958   0.01267  Uiso   1.00
I6     I     0.49240   0.28321   0.01584   0.01267  Uiso   1.00
I7     I     0.50760   0.71679   0.98416   0.01267  Uiso   1.00
I8     I     0.20777   0.48460   0.51042   0.01267  Uiso   1.00
I9     I     0.50824   0.01584   0.70095   0.01267  Uiso   1.00
I10    I     0.72317   0.00498   0.48460   0.01267  Uiso   1.00
I11    I     0.28181   0.48958   0.99502   0.01267  Uiso   1.00
I12    I     0.79081   0.29905   0.71679   0.01267  Uiso   1.00
N1     N     0.02928   0.98707   0.29330   0.01267  Uiso   1.00
N2     N     0.39752   0.52570   0.22828   0.01267  Uiso   1.00
N3     N     0.99602   0.85640   0.42273   0.01267  Uiso   1.00
N4     N     0.10257   0.99812   0.71670   0.01267  Uiso   1.00
N5     N     0.34747   0.17662   0.56637   0.01267  Uiso   1.00
N6     N     0.65253   0.82338   0.43363   0.01267  Uiso   1.00
N7     N     0.90015   0.32999   0.49405   0.01267  Uiso   1.00
N8     N     0.91384   0.56637   0.25701   0.01267  Uiso   1.00
N9     N     0.95823   0.74624   0.77662   0.01267  Uiso   1.00
N10    N     0.87182   0.24602   0.52570   0.01267  Uiso   1.00
N11    N     0.62580   0.22828   0.24602   0.01267  Uiso   1.00
N12    N     0.82915   0.74299   0.82338   0.01267  Uiso   1.00
N13    N     0.81927   0.71670   0.28518   0.01267  Uiso   1.00
N14    N     0.39420   0.49405   0.17596   0.01267  Uiso   1.00
N15    N     0.37420   0.77172   0.75398   0.01267  Uiso   1.00
N16    N     0.18073   0.28330   0.71482   0.01267  Uiso   1.00
N17    N     0.78801   0.52286   0.25376   0.01267  Uiso   1.00
N18    N     0.32258   0.29330   0.71963   0.01267  Uiso   1.00
N19    N     0.67742   0.70670   0.28037   0.01267  Uiso   1.00
N20    N     0.58125   0.57727   0.27913   0.01267  Uiso   1.00
N21    N     0.09985   0.67001   0.50595   0.01267  Uiso   1.00
N22    N     0.60580   0.50595   0.82404   0.01267  Uiso   1.00
N23    N     0.26515   0.22338   0.52286   0.01267  Uiso   1.00
N24    N     0.95779   0.28037   0.01293   0.01267  Uiso   1.00
N25    N     0.60248   0.47430   0.77172   0.01267  Uiso   1.00
N26    N     0.04177   0.25376   0.22338   0.01267  Uiso   1.00
N27    N     0.73485   0.77662   0.47714   0.01267  Uiso   1.00
N28    N     0.08616   0.43363   0.74299   0.01267  Uiso   1.00
N29    N     0.04221   0.71963   0.98707   0.01267  Uiso   1.00
N30    N     0.10445   0.28518   0.99812   0.01267  Uiso   1.00
N31    N     0.17085   0.25701   0.17662   0.01267  Uiso   1.00
N32    N     0.13962   0.72087   0.85640   0.01267  Uiso   1.00
N33    N     0.21199   0.47714   0.74624   0.01267  Uiso   1.00
N34    N     0.12818   0.75398   0.47430   0.01267  Uiso   1.00
N35    N     0.00398   0.14360   0.57727   0.01267  Uiso   1.00
N36    N     0.86038   0.27913   0.14360   0.01267  Uiso   1.00
N37    N     0.41875   0.42273   0.72087   0.01267  Uiso   1.00
N38    N     0.89555   0.71482   0.00188   0.01267  Uiso   1.00
N39    N     0.57016   0.17596   0.32999   0.01267  Uiso   1.00
N40    N     0.89743   0.00188   0.28330   0.01267  Uiso   1.00
N41    N     0.97072   0.01293   0.70670   0.01267  Uiso   1.00
N42    N     0.42984   0.82404   0.67001   0.01267  Uiso   1.00
