data_NICJOA_clean
_audit_creation_date              2014-07-02
_audit_creation_method            'Materials Studio'
_symmetry_space_group_name_H-M    'P1'
_symmetry_Int_Tables_number       1
_symmetry_cell_setting            triclinic
loop_
_symmetry_equiv_pos_as_xyz
  x,y,z
_cell_length_a                    12.8880
_cell_length_b                    15.0280
_cell_length_c                    15.0280
_cell_angle_alpha                 67.8260
_cell_angle_beta                  73.3894
_cell_angle_gamma                 106.6110
loop_
_atom_site_label
_atom_site_type_symbol
_atom_site_fract_x
_atom_site_fract_y
_atom_site_fract_z
_atom_site_U_iso_or_equiv
_atom_site_adp_type
_atom_site_occupancy
Ba1    Ba    0.36878   0.37370   0.32927   0.01267  Uiso   1.00
Ba2    Ba    0.69805   0.32927   0.29703   0.01267  Uiso   1.00
Ba3    Ba    0.99508   0.29703   0.37370   0.01267  Uiso   1.00
Ba4    Ba    0.63122   0.62630   0.67073   0.01267  Uiso   1.00
Ba5    Ba    0.30195   0.67073   0.70297   0.01267  Uiso   1.00
Ba6    Ba    0.00492   0.70297   0.62630   0.01267  Uiso   1.00
Cu1    Cu    0.20795   0.01701   0.49359   0.01267  Uiso   1.00
Cu2    Cu    0.70154   0.49359   0.48940   0.01267  Uiso   1.00
Cu3    Cu    0.19094   0.48940   0.01701   0.01267  Uiso   1.00
Cu4    Cu    0.79205   0.98299   0.50641   0.01267  Uiso   1.00
Cu5    Cu    0.29846   0.50641   0.51060   0.01267  Uiso   1.00
Cu6    Cu    0.80906   0.51060   0.98299   0.01267  Uiso   1.00
H1     H     0.33190   0.03890   0.29270   0.01267  Uiso   1.00
H2     H     0.37540   0.96480   0.25370   0.01267  Uiso   1.00
H3     H     0.47130   0.08210   0.21620   0.01267  Uiso   1.00
H4     H     0.49590   0.88120   0.33150   0.01267  Uiso   1.00
H5     H     0.54010   0.91460   0.40840   0.01267  Uiso   1.00
H6     H     0.59360   0.00110   0.28430   0.01267  Uiso   1.00
H7     H     0.13250   0.09260   0.71870   0.01267  Uiso   1.00
H8     H     0.15420   0.01410   0.67530   0.01267  Uiso   1.00
H9     H     0.03480   0.96960   0.78140   0.01267  Uiso   1.00
H10    H     0.89150   0.11060   0.64970   0.01267  Uiso   1.00
H11    H     0.97150   0.15170   0.70280   0.01267  Uiso   1.00
H12    H     0.87280   0.02930   0.76520   0.01267  Uiso   1.00
H13    H     0.48280   0.27680   0.49040   0.01267  Uiso   1.00
H14    H     0.44490   0.20480   0.46310   0.01267  Uiso   1.00
H15    H     0.62460   0.29270   0.66840   0.01267  Uiso   1.00
H16    H     0.62910   0.25370   0.78150   0.01267  Uiso   1.00
H17    H     0.68750   0.21620   0.70170   0.01267  Uiso   1.00
H18    H     0.82740   0.33150   0.78730   0.01267  Uiso   1.00
H19    H     0.94850   0.40840   0.67700   0.01267  Uiso   1.00
H20    H     0.87790   0.28430   0.71460   0.01267  Uiso   1.00
H21    H     0.85120   0.71870   0.18870   0.01267  Uiso   1.00
H22    H     0.82950   0.67530   0.31060   0.01267  Uiso   1.00
H23    H     0.81620   0.78140   0.24900   0.01267  Uiso   1.00
H24    H     0.54120   0.64970   0.23970   0.01267  Uiso   1.00
H25    H     0.67430   0.70280   0.14550   0.01267  Uiso   1.00
H26    H     0.63800   0.76520   0.20550   0.01267  Uiso   1.00
H27    H     0.97320   0.49040   0.23280   0.01267  Uiso   1.00
H28    H     0.90800   0.46310   0.33210   0.01267  Uiso   1.00
H29    H     0.29300   0.66840   0.03890   0.01267  Uiso   1.00
H30    H     0.41060   0.78150   0.96480   0.01267  Uiso   1.00
H31    H     0.38920   0.70170   0.08210   0.01267  Uiso   1.00
H32    H     0.61470   0.78730   0.88120   0.01267  Uiso   1.00
H33    H     0.62550   0.67700   0.91460   0.01267  Uiso   1.00
H34    H     0.59250   0.71460   0.00110   0.01267  Uiso   1.00
H35    H     0.03990   0.18870   0.09260   0.01267  Uiso   1.00
H36    H     0.14010   0.31060   0.01410   0.01267  Uiso   1.00
H37    H     0.06520   0.24900   0.96960   0.01267  Uiso   1.00
H38    H     0.78090   0.23970   0.11060   0.01267  Uiso   1.00
H39    H     0.81980   0.14550   0.15170   0.01267  Uiso   1.00
H40    H     0.84350   0.20550   0.02930   0.01267  Uiso   1.00
H41    H     0.20600   0.23280   0.27680   0.01267  Uiso   1.00
H42    H     0.24010   0.33210   0.20480   0.01267  Uiso   1.00
H43    H     0.66810   0.96110   0.70730   0.01267  Uiso   1.00
H44    H     0.62460   0.03520   0.74630   0.01267  Uiso   1.00
H45    H     0.52870   0.91790   0.78380   0.01267  Uiso   1.00
H46    H     0.50410   0.11880   0.66850   0.01267  Uiso   1.00
H47    H     0.45990   0.08540   0.59160   0.01267  Uiso   1.00
H48    H     0.40640   0.99890   0.71570   0.01267  Uiso   1.00
H49    H     0.86750   0.90740   0.28130   0.01267  Uiso   1.00
H50    H     0.84580   0.98590   0.32470   0.01267  Uiso   1.00
H51    H     0.96520   0.03040   0.21860   0.01267  Uiso   1.00
H52    H     0.10850   0.88940   0.35030   0.01267  Uiso   1.00
H53    H     0.02850   0.84830   0.29720   0.01267  Uiso   1.00
H54    H     0.12720   0.97070   0.23480   0.01267  Uiso   1.00
H55    H     0.51720   0.72320   0.50960   0.01267  Uiso   1.00
H56    H     0.55510   0.79520   0.53690   0.01267  Uiso   1.00
H57    H     0.37540   0.70730   0.33160   0.01267  Uiso   1.00
H58    H     0.37090   0.74630   0.21850   0.01267  Uiso   1.00
H59    H     0.31250   0.78380   0.29830   0.01267  Uiso   1.00
H60    H     0.17260   0.66850   0.21270   0.01267  Uiso   1.00
H61    H     0.05150   0.59160   0.32300   0.01267  Uiso   1.00
H62    H     0.12210   0.71570   0.28540   0.01267  Uiso   1.00
H63    H     0.14880   0.28130   0.81130   0.01267  Uiso   1.00
H64    H     0.17050   0.32470   0.68940   0.01267  Uiso   1.00
H65    H     0.18380   0.21860   0.75100   0.01267  Uiso   1.00
H66    H     0.45880   0.35030   0.76030   0.01267  Uiso   1.00
H67    H     0.32570   0.29720   0.85450   0.01267  Uiso   1.00
H68    H     0.36200   0.23480   0.79450   0.01267  Uiso   1.00
H69    H     0.02680   0.50960   0.76720   0.01267  Uiso   1.00
H70    H     0.09200   0.53690   0.66790   0.01267  Uiso   1.00
H71    H     0.70700   0.33160   0.96110   0.01267  Uiso   1.00
H72    H     0.58940   0.21850   0.03520   0.01267  Uiso   1.00
H73    H     0.61080   0.29830   0.91790   0.01267  Uiso   1.00
H74    H     0.38530   0.21270   0.11880   0.01267  Uiso   1.00
H75    H     0.37450   0.32300   0.08540   0.01267  Uiso   1.00
H76    H     0.40750   0.28540   0.99890   0.01267  Uiso   1.00
H77    H     0.96010   0.81130   0.90740   0.01267  Uiso   1.00
H78    H     0.85990   0.68940   0.98590   0.01267  Uiso   1.00
H79    H     0.93480   0.75100   0.03040   0.01267  Uiso   1.00
H80    H     0.21910   0.76030   0.88940   0.01267  Uiso   1.00
H81    H     0.18020   0.85450   0.84830   0.01267  Uiso   1.00
H82    H     0.15650   0.79450   0.97070   0.01267  Uiso   1.00
H83    H     0.79400   0.76720   0.72320   0.01267  Uiso   1.00
H84    H     0.75990   0.66790   0.79520   0.01267  Uiso   1.00
C1     C     0.30440   0.87660   0.46580   0.01267  Uiso   1.00
C2     C     0.12190   0.15880   0.53230   0.01267  Uiso   1.00
C3     C     0.39770   0.01870   0.27520   0.01267  Uiso   1.00
C4     C     0.42020   0.97200   0.37400   0.01267  Uiso   1.00
C5     C     0.46040   0.06410   0.39740   0.01267  Uiso   1.00
C6     C     0.52150   0.93940   0.34710   0.01267  Uiso   1.00
C7     C     0.02690   0.06200   0.64190   0.01267  Uiso   1.00
C8     C     0.96790   0.96620   0.63100   0.01267  Uiso   1.00
C9     C     0.09320   0.03190   0.71050   0.01267  Uiso   1.00
C10    C     0.93220   0.09100   0.69460   0.01267  Uiso   1.00
C11    C     0.77020   0.46580   0.65760   0.01267  Uiso   1.00
C12    C     0.65420   0.53230   0.30890   0.01267  Uiso   1.00
C13    C     0.67290   0.27520   0.70610   0.01267  Uiso   1.00
C14    C     0.79420   0.37400   0.65400   0.01267  Uiso   1.00
C15    C     0.85780   0.39740   0.53850   0.01267  Uiso   1.00
C16    C     0.86860   0.34710   0.71350   0.01267  Uiso   1.00
C17    C     0.66880   0.64190   0.29610   0.01267  Uiso   1.00
C18    C     0.59890   0.63100   0.40280   0.01267  Uiso   1.00
C19    C     0.80370   0.71050   0.25760   0.01267  Uiso   1.00
C20    C     0.62680   0.69460   0.21440   0.01267  Uiso   1.00
C21    C     0.42780   0.65760   0.87660   0.01267  Uiso   1.00
C22    C     0.96310   0.30890   0.15880   0.01267  Uiso   1.00
C23    C     0.37900   0.70610   0.01870   0.01267  Uiso   1.00
C24    C     0.44820   0.65400   0.97200   0.01267  Uiso   1.00
C25    C     0.39630   0.53850   0.06410   0.01267  Uiso   1.00
C26    C     0.58210   0.71350   0.93940   0.01267  Uiso   1.00
C27    C     0.96490   0.29610   0.06200   0.01267  Uiso   1.00
C28    C     0.00170   0.40280   0.96620   0.01267  Uiso   1.00
C29    C     0.06130   0.25760   0.03190   0.01267  Uiso   1.00
C30    C     0.84120   0.21440   0.09100   0.01267  Uiso   1.00
C31    C     0.69560   0.12340   0.53420   0.01267  Uiso   1.00
C32    C     0.87810   0.84120   0.46770   0.01267  Uiso   1.00
C33    C     0.60230   0.98130   0.72480   0.01267  Uiso   1.00
C34    C     0.57980   0.02800   0.62600   0.01267  Uiso   1.00
C35    C     0.53960   0.93590   0.60260   0.01267  Uiso   1.00
C36    C     0.47850   0.06060   0.65290   0.01267  Uiso   1.00
C37    C     0.97310   0.93800   0.35810   0.01267  Uiso   1.00
C38    C     0.03210   0.03380   0.36900   0.01267  Uiso   1.00
C39    C     0.90680   0.96810   0.28950   0.01267  Uiso   1.00
C40    C     0.06780   0.90900   0.30540   0.01267  Uiso   1.00
C41    C     0.22980   0.53420   0.34240   0.01267  Uiso   1.00
C42    C     0.34580   0.46770   0.69110   0.01267  Uiso   1.00
C43    C     0.32710   0.72480   0.29390   0.01267  Uiso   1.00
C44    C     0.20580   0.62600   0.34600   0.01267  Uiso   1.00
C45    C     0.14220   0.60260   0.46150   0.01267  Uiso   1.00
C46    C     0.13140   0.65290   0.28650   0.01267  Uiso   1.00
C47    C     0.33120   0.35810   0.70390   0.01267  Uiso   1.00
C48    C     0.40110   0.36900   0.59720   0.01267  Uiso   1.00
C49    C     0.19630   0.28950   0.74240   0.01267  Uiso   1.00
C50    C     0.37320   0.30540   0.78560   0.01267  Uiso   1.00
C51    C     0.57220   0.34240   0.12340   0.01267  Uiso   1.00
C52    C     0.03690   0.69110   0.84120   0.01267  Uiso   1.00
C53    C     0.62100   0.29390   0.98130   0.01267  Uiso   1.00
C54    C     0.55180   0.34600   0.02800   0.01267  Uiso   1.00
C55    C     0.60370   0.46150   0.93590   0.01267  Uiso   1.00
C56    C     0.41790   0.28650   0.06060   0.01267  Uiso   1.00
C57    C     0.03510   0.70390   0.93800   0.01267  Uiso   1.00
C58    C     0.99830   0.59720   0.03380   0.01267  Uiso   1.00
C59    C     0.93870   0.74240   0.96810   0.01267  Uiso   1.00
C60    C     0.15880   0.78560   0.90900   0.01267  Uiso   1.00
O1     O     0.47200   0.27040   0.44110   0.01267  Uiso   1.00
O2     O     0.03550   0.93350   0.58330   0.01267  Uiso   1.00
O3     O     0.85680   0.91990   0.67140   0.01267  Uiso   1.00
O4     O     0.20900   0.89130   0.49190   0.01267  Uiso   1.00
O5     O     0.37730   0.08240   0.44750   0.01267  Uiso   1.00
O6     O     0.21130   0.14910   0.47940   0.01267  Uiso   1.00
O7     O     0.56670   0.11800   0.36730   0.01267  Uiso   1.00
O8     O     0.29918   0.78756   0.51182   0.01267  Uiso   1.00
O9     O     0.11430   0.24430   0.49930   0.01267  Uiso   1.00
O10    O     0.91310   0.44110   0.28850   0.01267  Uiso   1.00
O11    O     0.61880   0.58330   0.48320   0.01267  Uiso   1.00
O12    O     0.52820   0.67140   0.40870   0.01267  Uiso   1.00
O13    O     0.70090   0.49190   0.61680   0.01267  Uiso   1.00
O14    O     0.82480   0.44750   0.47010   0.01267  Uiso   1.00
O15    O     0.69070   0.47940   0.37150   0.01267  Uiso   1.00
O16    O     0.93400   0.36730   0.51470   0.01267  Uiso   1.00
O17    O     0.81100   0.51182   0.70062   0.01267  Uiso   1.00
O18    O     0.61360   0.49930   0.25640   0.01267  Uiso   1.00
O19    O     0.20160   0.28850   0.27040   0.01267  Uiso   1.00
O20    O     0.10200   0.48320   0.93350   0.01267  Uiso   1.00
O21    O     0.93690   0.40870   0.91990   0.01267  Uiso   1.00
O22    O     0.31770   0.61680   0.89130   0.01267  Uiso   1.00
O23    O     0.29490   0.47010   0.08240   0.01267  Uiso   1.00
O24    O     0.06220   0.37150   0.14910   0.01267  Uiso   1.00
O25    O     0.44870   0.51470   0.11800   0.01267  Uiso   1.00
O26    O     0.51162   0.70062   0.78756   0.01267  Uiso   1.00
O27    O     0.87000   0.25640   0.24430   0.01267  Uiso   1.00
O28    O     0.52800   0.72960   0.55890   0.01267  Uiso   1.00
O29    O     0.96450   0.06650   0.41670   0.01267  Uiso   1.00
O30    O     0.14320   0.08010   0.32860   0.01267  Uiso   1.00
O31    O     0.79100   0.10870   0.50810   0.01267  Uiso   1.00
O32    O     0.62270   0.91760   0.55250   0.01267  Uiso   1.00
O33    O     0.78870   0.85090   0.52060   0.01267  Uiso   1.00
O34    O     0.43330   0.88200   0.63270   0.01267  Uiso   1.00
O35    O     0.70082   0.21244   0.48818   0.01267  Uiso   1.00
O36    O     0.88570   0.75570   0.50070   0.01267  Uiso   1.00
O37    O     0.08690   0.55890   0.71150   0.01267  Uiso   1.00
O38    O     0.38120   0.41670   0.51680   0.01267  Uiso   1.00
O39    O     0.47180   0.32860   0.59130   0.01267  Uiso   1.00
O40    O     0.29910   0.50810   0.38320   0.01267  Uiso   1.00
O41    O     0.17520   0.55250   0.52990   0.01267  Uiso   1.00
O42    O     0.30930   0.52060   0.62850   0.01267  Uiso   1.00
O43    O     0.06600   0.63270   0.48530   0.01267  Uiso   1.00
O44    O     0.18900   0.48818   0.29938   0.01267  Uiso   1.00
O45    O     0.38640   0.50070   0.74360   0.01267  Uiso   1.00
O46    O     0.79840   0.71150   0.72960   0.01267  Uiso   1.00
O47    O     0.89800   0.51680   0.06650   0.01267  Uiso   1.00
O48    O     0.06310   0.59130   0.08010   0.01267  Uiso   1.00
O49    O     0.68230   0.38320   0.10870   0.01267  Uiso   1.00
O50    O     0.70510   0.52990   0.91760   0.01267  Uiso   1.00
O51    O     0.93780   0.62850   0.85090   0.01267  Uiso   1.00
O52    O     0.55130   0.48530   0.88200   0.01267  Uiso   1.00
O53    O     0.48838   0.29938   0.21244   0.01267  Uiso   1.00
O54    O     0.13000   0.74360   0.75570   0.01267  Uiso   1.00
