data_ALICEE_clean
_audit_creation_date              2014-07-02
_audit_creation_method            'Materials Studio'
_symmetry_space_group_name_H-M    'P1'
_symmetry_Int_Tables_number       1
_symmetry_cell_setting            triclinic
loop_
_symmetry_equiv_pos_as_xyz
  x,y,z
_cell_length_a                    3.2237
_cell_length_b                    14.1744
_cell_length_c                    14.1744
_cell_angle_alpha                 89.2591
_cell_angle_beta                  83.4707
_cell_angle_gamma                 83.4705
loop_
_atom_site_label
_atom_site_type_symbol
_atom_site_fract_x
_atom_site_fract_y
_atom_site_fract_z
_atom_site_U_iso_or_equiv
_atom_site_adp_type
_atom_site_occupancy
Cu1    Cu    0.87500   0.11670   0.38330   0.01267  Uiso   1.00
Cu2    Cu    0.37500   0.88330   0.61670   0.01267  Uiso   1.00
Cu3    Cu    0.00830   0.11670   0.61670   0.01267  Uiso   1.00
Cu4    Cu    0.74170   0.88330   0.38330   0.01267  Uiso   1.00
Cu5    Cu    0.00000   0.00000   0.00000   0.01267  Uiso   1.00
Cu6    Cu    0.75000   0.50000   0.50000   0.01267  Uiso   1.00
H1     H     0.03520   0.14600   0.16580   0.01267  Uiso   1.00
H2     H     0.34700   0.85400   0.83420   0.01267  Uiso   1.00
H3     H     0.95100   0.33420   0.64600   0.01267  Uiso   1.00
H4     H     0.93120   0.66580   0.35400   0.01267  Uiso   1.00
H5     H     0.71480   0.33420   0.35400   0.01267  Uiso   1.00
H6     H     0.40300   0.66580   0.64600   0.01267  Uiso   1.00
H7     H     0.79900   0.85400   0.16580   0.01267  Uiso   1.00
H8     H     0.81880   0.14600   0.83420   0.01267  Uiso   1.00
C1     C     0.97240   0.08580   0.18540   0.01267  Uiso   1.00
C2     C     0.24360   0.91420   0.81460   0.01267  Uiso   1.00
C3     C     0.90780   0.31460   0.58580   0.01267  Uiso   1.00
C4     C     0.80820   0.68540   0.41420   0.01267  Uiso   1.00
C5     C     0.77760   0.31460   0.41420   0.01267  Uiso   1.00
C6     C     0.50640   0.68540   0.58580   0.01267  Uiso   1.00
C7     C     0.84220   0.91420   0.18540   0.01267  Uiso   1.00
C8     C     0.94180   0.08580   0.81460   0.01267  Uiso   1.00
N1     N     0.87960   0.04330   0.27950   0.01267  Uiso   1.00
N2     N     0.20240   0.95670   0.72050   0.01267  Uiso   1.00
N3     N     0.90910   0.22050   0.54330   0.01267  Uiso   1.00
N4     N     0.67290   0.77950   0.45670   0.01267  Uiso   1.00
N5     N     0.87040   0.22050   0.45670   0.01267  Uiso   1.00
N6     N     0.54760   0.77950   0.54330   0.01267  Uiso   1.00
N7     N     0.84090   0.95670   0.27950   0.01267  Uiso   1.00
N8     N     0.07710   0.04330   0.72050   0.01267  Uiso   1.00
N9     N     0.93290   1.00000   0.13420   0.01267  Uiso   1.00
N10    N     0.06710   0.00000   0.86580   0.01267  Uiso   1.00
N11    N     0.81710   0.36580   0.50000   0.01267  Uiso   1.00
N12    N     0.68290   0.63420   0.50000   0.01267  Uiso   1.00
