data_SAPJIE_charged
_audit_creation_date              2014-07-02
_audit_creation_method            'Materials Studio'
_symmetry_space_group_name_H-M    'P1'
_symmetry_Int_Tables_number       1
_symmetry_cell_setting            triclinic
loop_
_symmetry_equiv_pos_as_xyz
  x,y,z
_cell_length_a                    9.8348
_cell_length_b                    22.4743
_cell_length_c                    22.4743
_cell_angle_alpha                 87.2560
_cell_angle_beta                  77.3614
_cell_angle_gamma                 77.3614
loop_
_atom_site_label
_atom_site_type_symbol
_atom_site_fract_x
_atom_site_fract_y
_atom_site_fract_z
_atom_site_U_iso_or_equiv
_atom_site_adp_type
_atom_site_occupancy
Al1    Al    0.55566   0.19434   0.69434   0.01267  Uiso   1.00
Al2    Al    0.94434   0.30566   0.80566   0.01267  Uiso   1.00
Al3    Al    0.75000   0.30566   0.69434   0.01267  Uiso   1.00
Al4    Al    0.25000   0.19434   0.80566   0.01267  Uiso   1.00
Al5    Al    0.44434   0.80566   0.30566   0.01267  Uiso   1.00
Al6    Al    0.05566   0.69434   0.19434   0.01267  Uiso   1.00
Al7    Al    0.25000   0.69434   0.30566   0.01267  Uiso   1.00
Al8    Al    0.75000   0.80566   0.19434   0.01267  Uiso   1.00
Zn1    Zn    0.46077   0.41601   0.52267   0.01267  Uiso   1.00
Zn2    Zn    0.89945   0.08399   0.97733   0.01267  Uiso   1.00
Zn3    Zn    0.48344   0.47733   0.91601   0.01267  Uiso   1.00
Zn4    Zn    0.37678   0.02267   0.58399   0.01267  Uiso   1.00
Zn5    Zn    0.60055   0.02267   0.91601   0.01267  Uiso   1.00
Zn6    Zn    0.03923   0.47733   0.58399   0.01267  Uiso   1.00
Zn7    Zn    0.12322   0.41601   0.97733   0.01267  Uiso   1.00
Zn8    Zn    0.01656   0.08399   0.52267   0.01267  Uiso   1.00
Zn9    Zn    0.53923   0.58399   0.47733   0.01267  Uiso   1.00
Zn10   Zn    0.10055   0.91601   0.02267   0.01267  Uiso   1.00
Zn11   Zn    0.51656   0.52267   0.08399   0.01267  Uiso   1.00
Zn12   Zn    0.62322   0.97733   0.41601   0.01267  Uiso   1.00
Zn13   Zn    0.39945   0.97733   0.08399   0.01267  Uiso   1.00
Zn14   Zn    0.96077   0.52267   0.41601   0.01267  Uiso   1.00
Zn15   Zn    0.87678   0.58399   0.02267   0.01267  Uiso   1.00
Zn16   Zn    0.98344   0.91601   0.47733   0.01267  Uiso   1.00
P1     P     0.21024   0.42876   0.45354   0.01267  Uiso   1.00
P2     P     0.49686   0.32038   0.62904   0.01267  Uiso   1.00
P3     P     0.59254   0.07124   0.04646   0.01267  Uiso   1.00
P4     P     0.94628   0.17962   0.87096   0.01267  Uiso   1.00
P5     P     0.16378   0.54646   0.92876   0.01267  Uiso   1.00
P6     P     0.62590   0.37096   0.82038   0.01267  Uiso   1.00
P7     P     0.13900   0.95354   0.57124   0.01267  Uiso   1.00
P8     P     0.31724   0.12904   0.67962   0.01267  Uiso   1.00
P9     P     0.90746   0.95354   0.92876   0.01267  Uiso   1.00
P10    P     0.55372   0.12904   0.82038   0.01267  Uiso   1.00
P11    P     0.28976   0.54646   0.57124   0.01267  Uiso   1.00
P12    P     0.00314   0.37096   0.67962   0.01267  Uiso   1.00
P13    P     0.36100   0.42876   0.04646   0.01267  Uiso   1.00
P14    P     0.18276   0.32038   0.87096   0.01267  Uiso   1.00
P15    P     0.33622   0.07124   0.45354   0.01267  Uiso   1.00
P16    P     0.87410   0.17962   0.62904   0.01267  Uiso   1.00
P17    P     0.78976   0.57124   0.54646   0.01267  Uiso   1.00
P18    P     0.50314   0.67962   0.37096   0.01267  Uiso   1.00
P19    P     0.40746   0.92876   0.95354   0.01267  Uiso   1.00
P20    P     0.05372   0.82038   0.12904   0.01267  Uiso   1.00
P21    P     0.83622   0.45354   0.07124   0.01267  Uiso   1.00
P22    P     0.37410   0.62904   0.17962   0.01267  Uiso   1.00
P23    P     0.86100   0.04646   0.42876   0.01267  Uiso   1.00
P24    P     0.68276   0.87096   0.32038   0.01267  Uiso   1.00
P25    P     0.09254   0.04646   0.07124   0.01267  Uiso   1.00
P26    P     0.44628   0.87096   0.17962   0.01267  Uiso   1.00
P27    P     0.71024   0.45354   0.42876   0.01267  Uiso   1.00
P28    P     0.99686   0.62904   0.32038   0.01267  Uiso   1.00
P29    P     0.63900   0.57124   0.95354   0.01267  Uiso   1.00
P30    P     0.81724   0.67962   0.12904   0.01267  Uiso   1.00
P31    P     0.66378   0.92876   0.54646   0.01267  Uiso   1.00
P32    P     0.12590   0.82038   0.37096   0.01267  Uiso   1.00
H1     H     0.38030   0.35220   0.67100   0.01267  Uiso   1.00
H2     H     0.19850   0.38240   0.42060   0.01267  Uiso   1.00
H3     H     0.90350   0.14780   0.82900   0.01267  Uiso   1.00
H4     H     0.50150   0.11760   0.07940   0.01267  Uiso   1.00
H5     H     0.55130   0.32900   0.85220   0.01267  Uiso   1.00
H6     H     0.11910   0.57940   0.88240   0.01267  Uiso   1.00
H7     H     0.23250   0.17100   0.64780   0.01267  Uiso   1.00
H8     H     0.08090   0.92060   0.61760   0.01267  Uiso   1.00
H9     H     0.59650   0.17100   0.85220   0.01267  Uiso   1.00
H10    H     0.99850   0.92060   0.88240   0.01267  Uiso   1.00
H11    H     0.11970   0.32900   0.64780   0.01267  Uiso   1.00
H12    H     0.30150   0.57940   0.61760   0.01267  Uiso   1.00
H13    H     0.26750   0.35220   0.82900   0.01267  Uiso   1.00
H14    H     0.41910   0.38240   0.07940   0.01267  Uiso   1.00
H15    H     0.94870   0.14780   0.67100   0.01267  Uiso   1.00
H16    H     0.38090   0.11760   0.42060   0.01267  Uiso   1.00
H17    H     0.61970   0.64780   0.32900   0.01267  Uiso   1.00
H18    H     0.80150   0.61760   0.57940   0.01267  Uiso   1.00
H19    H     0.09650   0.85220   0.17100   0.01267  Uiso   1.00
H20    H     0.49850   0.88240   0.92060   0.01267  Uiso   1.00
H21    H     0.44870   0.67100   0.14780   0.01267  Uiso   1.00
H22    H     0.88090   0.42060   0.11760   0.01267  Uiso   1.00
H23    H     0.76750   0.82900   0.35220   0.01267  Uiso   1.00
H24    H     0.91910   0.07940   0.38240   0.01267  Uiso   1.00
H25    H     0.40350   0.82900   0.14780   0.01267  Uiso   1.00
H26    H     0.00150   0.07940   0.11760   0.01267  Uiso   1.00
H27    H     0.88030   0.67100   0.35220   0.01267  Uiso   1.00
H28    H     0.69850   0.42060   0.38240   0.01267  Uiso   1.00
H29    H     0.73250   0.64780   0.17100   0.01267  Uiso   1.00
H30    H     0.58090   0.61760   0.92060   0.01267  Uiso   1.00
H31    H     0.05130   0.85220   0.32900   0.01267  Uiso   1.00
H32    H     0.61910   0.88240   0.57940   0.01267  Uiso   1.00
O1     O     0.36405   0.42348   0.45662   0.01267  Uiso   1.00
O2     O     0.11064   0.42162   0.51450   0.01267  Uiso   1.00
O3     O     0.15646   0.48728   0.42000   0.01267  Uiso   1.00
O4     O     0.50292   0.25261   0.63595   0.01267  Uiso   1.00
O5     O     0.63160   0.33836   0.64004   0.01267  Uiso   1.00
O6     O     0.46637   0.34197   0.56769   0.01267  Uiso   1.00
O7     O     0.74415   0.07652   0.04338   0.01267  Uiso   1.00
O8     O     0.54676   0.07838   0.98550   0.01267  Uiso   1.00
O9     O     0.56374   0.01272   0.08000   0.01267  Uiso   1.00
O10    O     0.89148   0.24739   0.86405   0.01267  Uiso   1.00
O11    O     0.11000   0.16164   0.85996   0.01267  Uiso   1.00
O12    O     0.87603   0.15803   0.93231   0.01267  Uiso   1.00
O13    O     0.32067   0.54338   0.92348   0.01267  Uiso   1.00
O14    O     0.12514   0.48550   0.92162   0.01267  Uiso   1.00
O15    O     0.07646   0.58000   0.98728   0.01267  Uiso   1.00
O16    O     0.63887   0.36405   0.75261   0.01267  Uiso   1.00
O17    O     0.77164   0.35996   0.83836   0.01267  Uiso   1.00
O18    O     0.53406   0.43231   0.84197   0.01267  Uiso   1.00
O19    O     0.28753   0.95662   0.57652   0.01267  Uiso   1.00
O20    O     0.03226   0.01450   0.57838   0.01267  Uiso   1.00
O21    O     0.14374   0.92000   0.51272   0.01267  Uiso   1.00
O22    O     0.25553   0.13595   0.74739   0.01267  Uiso   1.00
O23    O     0.46996   0.14004   0.66164   0.01267  Uiso   1.00
O24    O     0.30834   0.06769   0.65803   0.01267  Uiso   1.00
O25    O     0.75585   0.95662   0.92348   0.01267  Uiso   1.00
O26    O     0.95324   0.01450   0.92162   0.01267  Uiso   1.00
O27    O     0.93626   0.92000   0.98728   0.01267  Uiso   1.00
O28    O     0.60852   0.13595   0.75261   0.01267  Uiso   1.00
O29    O     0.39000   0.14004   0.83836   0.01267  Uiso   1.00
O30    O     0.62397   0.06769   0.84197   0.01267  Uiso   1.00
O31    O     0.13595   0.54338   0.57652   0.01267  Uiso   1.00
O32    O     0.38936   0.48550   0.57838   0.01267  Uiso   1.00
O33    O     0.34354   0.58000   0.51272   0.01267  Uiso   1.00
O34    O     0.99708   0.36405   0.74739   0.01267  Uiso   1.00
O35    O     0.86840   0.35996   0.66164   0.01267  Uiso   1.00
O36    O     0.03363   0.43231   0.65803   0.01267  Uiso   1.00
O37    O     0.21247   0.42348   0.04338   0.01267  Uiso   1.00
O38    O     0.46774   0.42162   0.98550   0.01267  Uiso   1.00
O39    O     0.35626   0.48728   0.08000   0.01267  Uiso   1.00
O40    O     0.24447   0.25261   0.86405   0.01267  Uiso   1.00
O41    O     0.03004   0.33836   0.85996   0.01267  Uiso   1.00
O42    O     0.19166   0.34197   0.93231   0.01267  Uiso   1.00
O43    O     0.17933   0.07652   0.45662   0.01267  Uiso   1.00
O44    O     0.37486   0.07838   0.51450   0.01267  Uiso   1.00
O45    O     0.42354   0.01272   0.42000   0.01267  Uiso   1.00
O46    O     0.86113   0.24739   0.63595   0.01267  Uiso   1.00
O47    O     0.72836   0.16164   0.64004   0.01267  Uiso   1.00
O48    O     0.96594   0.15803   0.56769   0.01267  Uiso   1.00
O49    O     0.63595   0.57652   0.54338   0.01267  Uiso   1.00
O50    O     0.88936   0.57838   0.48550   0.01267  Uiso   1.00
O51    O     0.84354   0.51272   0.58000   0.01267  Uiso   1.00
O52    O     0.49708   0.74739   0.36405   0.01267  Uiso   1.00
O53    O     0.36840   0.66164   0.35996   0.01267  Uiso   1.00
O54    O     0.53363   0.65803   0.43231   0.01267  Uiso   1.00
O55    O     0.25585   0.92348   0.95662   0.01267  Uiso   1.00
O56    O     0.45324   0.92162   0.01450   0.01267  Uiso   1.00
O57    O     0.43626   0.98728   0.92000   0.01267  Uiso   1.00
O58    O     0.10852   0.75261   0.13595   0.01267  Uiso   1.00
O59    O     0.89000   0.83836   0.14004   0.01267  Uiso   1.00
O60    O     0.12397   0.84197   0.06769   0.01267  Uiso   1.00
O61    O     0.67933   0.45662   0.07652   0.01267  Uiso   1.00
O62    O     0.87486   0.51450   0.07838   0.01267  Uiso   1.00
O63    O     0.92354   0.42000   0.01272   0.01267  Uiso   1.00
O64    O     0.36113   0.63595   0.24739   0.01267  Uiso   1.00
O65    O     0.22836   0.64004   0.16164   0.01267  Uiso   1.00
O66    O     0.46594   0.56769   0.15803   0.01267  Uiso   1.00
O67    O     0.71247   0.04338   0.42348   0.01267  Uiso   1.00
O68    O     0.96774   0.98550   0.42162   0.01267  Uiso   1.00
O69    O     0.85626   0.08000   0.48728   0.01267  Uiso   1.00
O70    O     0.74447   0.86405   0.25261   0.01267  Uiso   1.00
O71    O     0.53004   0.85996   0.33836   0.01267  Uiso   1.00
O72    O     0.69166   0.93231   0.34197   0.01267  Uiso   1.00
O73    O     0.24415   0.04338   0.07652   0.01267  Uiso   1.00
O74    O     0.04676   0.98550   0.07838   0.01267  Uiso   1.00
O75    O     0.06374   0.08000   0.01272   0.01267  Uiso   1.00
O76    O     0.39148   0.86405   0.24739   0.01267  Uiso   1.00
O77    O     0.61000   0.85996   0.16164   0.01267  Uiso   1.00
O78    O     0.37603   0.93231   0.15803   0.01267  Uiso   1.00
O79    O     0.86405   0.45662   0.42348   0.01267  Uiso   1.00
O80    O     0.61064   0.51450   0.42162   0.01267  Uiso   1.00
O81    O     0.65646   0.42000   0.48728   0.01267  Uiso   1.00
O82    O     0.00292   0.63595   0.25261   0.01267  Uiso   1.00
O83    O     0.13160   0.64004   0.33836   0.01267  Uiso   1.00
O84    O     0.96637   0.56769   0.34197   0.01267  Uiso   1.00
O85    O     0.78753   0.57652   0.95662   0.01267  Uiso   1.00
O86    O     0.53226   0.57838   0.01450   0.01267  Uiso   1.00
O87    O     0.64374   0.51272   0.92000   0.01267  Uiso   1.00
O88    O     0.75553   0.74739   0.13595   0.01267  Uiso   1.00
O89    O     0.96996   0.66164   0.14004   0.01267  Uiso   1.00
O90    O     0.80834   0.65803   0.06769   0.01267  Uiso   1.00
O91    O     0.82067   0.92348   0.54338   0.01267  Uiso   1.00
O92    O     0.62514   0.92162   0.48550   0.01267  Uiso   1.00
O93    O     0.57646   0.98728   0.58000   0.01267  Uiso   1.00
O94    O     0.13887   0.75261   0.36405   0.01267  Uiso   1.00
O95    O     0.27164   0.83836   0.35996   0.01267  Uiso   1.00
O96    O     0.03406   0.84197   0.43231   0.01267  Uiso   1.00
F1     F     0.63742   0.25000   0.72516   0.01267  Uiso   1.00
F2     F     0.11258   0.25000   0.77484   0.01267  Uiso   1.00
F3     F     0.86258   0.27484   0.75000   0.01267  Uiso   1.00
F4     F     0.38742   0.22516   0.75000   0.01267  Uiso   1.00
F5     F     0.36258   0.75000   0.27484   0.01267  Uiso   1.00
F6     F     0.88742   0.75000   0.22516   0.01267  Uiso   1.00
F7     F     0.13742   0.72516   0.25000   0.01267  Uiso   1.00
F8     F     0.61258   0.77484   0.25000   0.01267  Uiso   1.00
H33    H     0.81350   0.36070   0.52030   0.01267  Uiso   1.00
H34    H     0.97600   0.37040   0.51740   0.01267  Uiso   1.00
H35    H     0.85370   0.34480   0.56860   0.01267  Uiso   1.00
C1     C     0.94970   0.29590   0.49670   0.01267  Uiso   1.00
C2     C     0.94690   0.29210   0.43010   0.01267  Uiso   1.00
C3     C     0.00660   0.23250   0.39430   0.01267  Uiso   1.00
C4     C     0.14300   0.24000   0.41200   0.01267  Uiso   1.00
N1     N     0.89330   0.35000   0.53060   0.01267  Uiso   1.00
H36    H     0.19450   0.13930   0.97970   0.01267  Uiso   1.00
H37    H     0.36380   0.12960   0.98260   0.01267  Uiso   1.00
H38    H     0.26710   0.15520   0.93140   0.01267  Uiso   1.00
C5     C     0.24230   0.20410   0.00330   0.01267  Uiso   1.00
C6     C     0.16910   0.20790   0.06990   0.01267  Uiso   1.00
C7     C     0.13340   0.26750   0.10570   0.01267  Uiso   1.00
C8     C     0.29500   0.26000   0.08800   0.01267  Uiso   1.00
N2     N     0.27390   0.15000   0.96940   0.01267  Uiso   1.00
H39    H     0.83380   0.47970   0.86070   0.01267  Uiso   1.00
H40    H     0.99340   0.48260   0.87040   0.01267  Uiso   1.00
H41    H     0.92230   0.43140   0.84480   0.01267  Uiso   1.00
C9     C     0.94640   0.50330   0.79590   0.01267  Uiso   1.00
C10    C     0.87700   0.56990   0.79210   0.01267  Uiso   1.00
C11    C     0.90090   0.60570   0.73250   0.01267  Uiso   1.00
C12    C     0.05500   0.58800   0.74000   0.01267  Uiso   1.00
N3     N     0.92390   0.46940   0.85000   0.01267  Uiso   1.00
H42    H     0.67420   0.02030   0.63930   0.01267  Uiso   1.00
H43    H     0.84640   0.01740   0.62960   0.01267  Uiso   1.00
H44    H     0.69850   0.06860   0.65520   0.01267  Uiso   1.00
C13    C     0.74560   0.99670   0.70410   0.01267  Uiso   1.00
C14    C     0.73900   0.93010   0.70790   0.01267  Uiso   1.00
C15    C     0.73910   0.89430   0.76750   0.01267  Uiso   1.00
C16    C     0.88300   0.91200   0.76000   0.01267  Uiso   1.00
N4     N     0.74330   0.03060   0.65000   0.01267  Uiso   1.00
H45    H     0.30550   0.02030   0.86070   0.01267  Uiso   1.00
H46    H     0.13620   0.01740   0.87040   0.01267  Uiso   1.00
H47    H     0.23290   0.06860   0.84480   0.01267  Uiso   1.00
C17    C     0.25770   0.99670   0.79590   0.01267  Uiso   1.00
C18    C     0.33090   0.93010   0.79210   0.01267  Uiso   1.00
C19    C     0.36660   0.89430   0.73250   0.01267  Uiso   1.00
C20    C     0.20500   0.91200   0.74000   0.01267  Uiso   1.00
N5     N     0.22610   0.03060   0.85000   0.01267  Uiso   1.00
H48    H     0.68650   0.47970   0.63930   0.01267  Uiso   1.00
H49    H     0.52400   0.48260   0.62960   0.01267  Uiso   1.00
H50    H     0.64630   0.43140   0.65520   0.01267  Uiso   1.00
C21    C     0.55030   0.50330   0.70410   0.01267  Uiso   1.00
C22    C     0.55310   0.56990   0.70790   0.01267  Uiso   1.00
C23    C     0.49340   0.60570   0.76750   0.01267  Uiso   1.00
C24    C     0.35700   0.58800   0.76000   0.01267  Uiso   1.00
N6     N     0.60670   0.46940   0.65000   0.01267  Uiso   1.00
H51    H     0.82580   0.36070   0.97970   0.01267  Uiso   1.00
H52    H     0.65360   0.37040   0.98260   0.01267  Uiso   1.00
H53    H     0.80150   0.34480   0.93140   0.01267  Uiso   1.00
C25    C     0.75440   0.29590   0.00330   0.01267  Uiso   1.00
C26    C     0.76100   0.29210   0.06990   0.01267  Uiso   1.00
C27    C     0.76090   0.23250   0.10570   0.01267  Uiso   1.00
C28    C     0.61700   0.24000   0.08800   0.01267  Uiso   1.00
N7     N     0.75670   0.35000   0.96940   0.01267  Uiso   1.00
H54    H     0.66620   0.13930   0.52030   0.01267  Uiso   1.00
H55    H     0.50660   0.12960   0.51740   0.01267  Uiso   1.00
H56    H     0.57770   0.15520   0.56860   0.01267  Uiso   1.00
C29    C     0.55360   0.20410   0.49670   0.01267  Uiso   1.00
C30    C     0.62300   0.20790   0.43010   0.01267  Uiso   1.00
C31    C     0.59910   0.26750   0.39430   0.01267  Uiso   1.00
C32    C     0.44500   0.26000   0.41200   0.01267  Uiso   1.00
N8     N     0.57610   0.15000   0.53060   0.01267  Uiso   1.00
H57    H     0.18650   0.63930   0.47970   0.01267  Uiso   1.00
H58    H     0.02400   0.62960   0.48260   0.01267  Uiso   1.00
H59    H     0.14630   0.65520   0.43140   0.01267  Uiso   1.00
C33    C     0.05030   0.70410   0.50330   0.01267  Uiso   1.00
C34    C     0.05310   0.70790   0.56990   0.01267  Uiso   1.00
C35    C     0.99340   0.76750   0.60570   0.01267  Uiso   1.00
C36    C     0.85700   0.76000   0.58800   0.01267  Uiso   1.00
N9     N     0.10670   0.65000   0.46940   0.01267  Uiso   1.00
H60    H     0.80550   0.86070   0.02030   0.01267  Uiso   1.00
H61    H     0.63620   0.87040   0.01740   0.01267  Uiso   1.00
H62    H     0.73290   0.84480   0.06860   0.01267  Uiso   1.00
C37    C     0.75770   0.79590   0.99670   0.01267  Uiso   1.00
C38    C     0.83090   0.79210   0.93010   0.01267  Uiso   1.00
C39    C     0.86660   0.73250   0.89430   0.01267  Uiso   1.00
C40    C     0.70500   0.74000   0.91200   0.01267  Uiso   1.00
N10    N     0.72610   0.85000   0.03060   0.01267  Uiso   1.00
H63    H     0.16620   0.52030   0.13930   0.01267  Uiso   1.00
H64    H     0.00660   0.51740   0.12960   0.01267  Uiso   1.00
H65    H     0.07770   0.56860   0.15520   0.01267  Uiso   1.00
C41    C     0.05360   0.49670   0.20410   0.01267  Uiso   1.00
C42    C     0.12300   0.43010   0.20790   0.01267  Uiso   1.00
C43    C     0.09910   0.39430   0.26750   0.01267  Uiso   1.00
C44    C     0.94500   0.41200   0.26000   0.01267  Uiso   1.00
N11    N     0.07610   0.53060   0.15000   0.01267  Uiso   1.00
H66    H     0.32580   0.97970   0.36070   0.01267  Uiso   1.00
H67    H     0.15360   0.98260   0.37040   0.01267  Uiso   1.00
H68    H     0.30150   0.93140   0.34480   0.01267  Uiso   1.00
C45    C     0.25440   0.00330   0.29590   0.01267  Uiso   1.00
C46    C     0.26100   0.06990   0.29210   0.01267  Uiso   1.00
C47    C     0.26090   0.10570   0.23250   0.01267  Uiso   1.00
C48    C     0.11700   0.08800   0.24000   0.01267  Uiso   1.00
N12    N     0.25670   0.96940   0.35000   0.01267  Uiso   1.00
H69    H     0.69450   0.97970   0.13930   0.01267  Uiso   1.00
H70    H     0.86380   0.98260   0.12960   0.01267  Uiso   1.00
H71    H     0.76710   0.93140   0.15520   0.01267  Uiso   1.00
C49    C     0.74230   0.00330   0.20410   0.01267  Uiso   1.00
C50    C     0.66910   0.06990   0.20790   0.01267  Uiso   1.00
C51    C     0.63340   0.10570   0.26750   0.01267  Uiso   1.00
C52    C     0.79500   0.08800   0.26000   0.01267  Uiso   1.00
N13    N     0.77390   0.96940   0.15000   0.01267  Uiso   1.00
H72    H     0.31350   0.52030   0.36070   0.01267  Uiso   1.00
H73    H     0.47600   0.51740   0.37040   0.01267  Uiso   1.00
H74    H     0.35370   0.56860   0.34480   0.01267  Uiso   1.00
C53    C     0.44970   0.49670   0.29590   0.01267  Uiso   1.00
C54    C     0.44690   0.43010   0.29210   0.01267  Uiso   1.00
C55    C     0.50660   0.39430   0.23250   0.01267  Uiso   1.00
C56    C     0.64300   0.41200   0.24000   0.01267  Uiso   1.00
N14    N     0.39330   0.53060   0.35000   0.01267  Uiso   1.00
H75    H     0.17420   0.63930   0.02030   0.01267  Uiso   1.00
H76    H     0.34640   0.62960   0.01740   0.01267  Uiso   1.00
H77    H     0.19850   0.65520   0.06860   0.01267  Uiso   1.00
C57    C     0.24560   0.70410   0.99670   0.01267  Uiso   1.00
C58    C     0.23900   0.70790   0.93010   0.01267  Uiso   1.00
C59    C     0.23910   0.76750   0.89430   0.01267  Uiso   1.00
C60    C     0.38300   0.76000   0.91200   0.01267  Uiso   1.00
N15    N     0.24330   0.65000   0.03060   0.01267  Uiso   1.00
H78    H     0.33380   0.86070   0.47970   0.01267  Uiso   1.00
H79    H     0.49340   0.87040   0.48260   0.01267  Uiso   1.00
H80    H     0.42230   0.84480   0.43140   0.01267  Uiso   1.00
C61    C     0.44640   0.79590   0.50330   0.01267  Uiso   1.00
C62    C     0.37700   0.79210   0.56990   0.01267  Uiso   1.00
C63    C     0.40090   0.73250   0.60570   0.01267  Uiso   1.00
C64    C     0.55500   0.74000   0.58800   0.01267  Uiso   1.00
N16    N     0.42390   0.85000   0.46940   0.01267  Uiso   1.00
