data_HIQPII_clean
_audit_creation_date              2015-10-16
_audit_creation_method            'Materials Studio'
_symmetry_space_group_name_H-M    'P1'
_symmetry_Int_Tables_number       1
_symmetry_cell_setting            triclinic
loop_
_symmetry_equiv_pos_as_xyz
  x,y,z
_cell_length_a                    7.3667
_cell_length_b                    8.8118
_cell_length_c                    8.8118
_cell_angle_alpha                 90.0000
_cell_angle_beta                  90.0000
_cell_angle_gamma                 90.0000
loop_
_atom_site_label
_atom_site_type_symbol
_atom_site_fract_x
_atom_site_fract_y
_atom_site_fract_z
_atom_site_U_iso_or_equiv
_atom_site_adp_type
_atom_site_occupancy
Zn1    Zn    0.00000   0.00000   0.00000   0.01267  Uiso   1.00
Zn2    Zn    0.50000   0.00000   0.00000   0.01267  Uiso   1.00
H1     H     0.85664   0.89754   0.34520   0.01267  Uiso   1.00
H2     H     0.04514   0.70073   0.74878   0.01267  Uiso   1.00
H3     H     0.64336   0.89754   0.65480   0.01267  Uiso   1.00
H4     H     0.47863   0.53835   0.18625   0.01267  Uiso   1.00
H5     H     0.52137   0.81375   0.53835   0.01267  Uiso   1.00
H6     H     0.54514   0.74878   0.70073   0.01267  Uiso   1.00
H7     H     0.95486   0.74878   0.29927   0.01267  Uiso   1.00
H8     H     0.35664   0.34520   0.89754   0.01267  Uiso   1.00
H9     H     0.14336   0.34520   0.10246   0.01267  Uiso   1.00
H10    H     0.35664   0.65480   0.10246   0.01267  Uiso   1.00
H11    H     0.45486   0.29927   0.74878   0.01267  Uiso   1.00
H12    H     0.45486   0.70073   0.25122   0.01267  Uiso   1.00
H13    H     0.97863   0.18625   0.53835   0.01267  Uiso   1.00
H14    H     0.54514   0.25122   0.29927   0.01267  Uiso   1.00
H15    H     0.14336   0.65480   0.89754   0.01267  Uiso   1.00
H16    H     0.97863   0.81375   0.46165   0.01267  Uiso   1.00
H17    H     0.64336   0.10246   0.34520   0.01267  Uiso   1.00
H18    H     0.02137   0.53835   0.81375   0.01267  Uiso   1.00
H19    H     0.95486   0.25122   0.70073   0.01267  Uiso   1.00
H20    H     0.47863   0.46165   0.81375   0.01267  Uiso   1.00
H21    H     0.85664   0.10246   0.65480   0.01267  Uiso   1.00
H22    H     0.04514   0.29927   0.25122   0.01267  Uiso   1.00
H23    H     0.02137   0.46165   0.18625   0.01267  Uiso   1.00
H24    H     0.52137   0.18625   0.46165   0.01267  Uiso   1.00
C1     C     0.25000   0.00000   0.58738   0.01267  Uiso   1.00
C2     C     0.10968   0.92107   0.30989   0.01267  Uiso   1.00
C3     C     0.60968   0.30989   0.92107   0.01267  Uiso   1.00
C4     C     0.39032   0.92107   0.69011   0.01267  Uiso   1.00
C5     C     0.46401   0.64241   0.16087   0.01267  Uiso   1.00
C6     C     0.75000   0.58738   0.00000   0.01267  Uiso   1.00
C7     C     0.96401   0.83913   0.35759   0.01267  Uiso   1.00
C8     C     0.10968   0.07893   0.69011   0.01267  Uiso   1.00
C9     C     0.75000   0.41262   0.00000   0.01267  Uiso   1.00
C10    C     0.53599   0.16087   0.35759   0.01267  Uiso   1.00
C11    C     0.03599   0.35759   0.16087   0.01267  Uiso   1.00
C12    C     0.03599   0.64241   0.83913   0.01267  Uiso   1.00
C13    C     0.60968   0.69011   0.07893   0.01267  Uiso   1.00
C14    C     0.46401   0.35759   0.83913   0.01267  Uiso   1.00
C15    C     0.25000   0.00000   0.41262   0.01267  Uiso   1.00
C16    C     0.89032   0.30989   0.07893   0.01267  Uiso   1.00
C17    C     0.39032   0.07893   0.30989   0.01267  Uiso   1.00
C18    C     0.96401   0.16087   0.64241   0.01267  Uiso   1.00
C19    C     0.89032   0.69011   0.92107   0.01267  Uiso   1.00
C20    C     0.53599   0.83913   0.64241   0.01267  Uiso   1.00
N1     N     0.65701   0.16311   0.94770   0.01267  Uiso   1.00
N2     N     0.65701   0.83689   0.05230   0.01267  Uiso   1.00
N3     N     0.84299   0.16311   0.05230   0.01267  Uiso   1.00
N4     N     0.84299   0.83689   0.94770   0.01267  Uiso   1.00
N5     N     0.15701   0.94770   0.16311   0.01267  Uiso   1.00
N6     N     0.15701   0.05230   0.83689   0.01267  Uiso   1.00
N7     N     0.34299   0.05230   0.16311   0.01267  Uiso   1.00
N8     N     0.34299   0.94770   0.83689   0.01267  Uiso   1.00
