data_BUVXOG01_clean
_audit_creation_date              2014-07-02
_audit_creation_method            'Materials Studio'
_symmetry_space_group_name_H-M    'P1'
_symmetry_Int_Tables_number       1
_symmetry_cell_setting            triclinic
loop_
_symmetry_equiv_pos_as_xyz
  x,y,z
_cell_length_a                    9.1222
_cell_length_b                    16.3285
_cell_length_c                    16.3285
_cell_angle_alpha                 63.3857
_cell_angle_beta                  79.2676
_cell_angle_gamma                 100.7320
loop_
_atom_site_label
_atom_site_type_symbol
_atom_site_fract_x
_atom_site_fract_y
_atom_site_fract_z
_atom_site_U_iso_or_equiv
_atom_site_adp_type
_atom_site_occupancy
Fe1    Fe    0.50000   0.50000   0.00000   0.01267  Uiso   1.00
Fe2    Fe    0.50000   0.00000   0.50000   0.01267  Uiso   1.00
Fe3    Fe    0.00000   0.50000   0.50000   0.01267  Uiso   1.00
H1     H     0.10280   0.66030   0.01870   0.01267  Uiso   1.00
H2     H     0.25880   0.82030   0.91080   0.01267  Uiso   1.00
H3     H     0.52170   0.84920   0.83590   0.01267  Uiso   1.00
H4     H     0.62440   0.72460   0.87060   0.01267  Uiso   1.00
H5     H     0.76980   0.34970   0.27000   0.01267  Uiso   1.00
H6     H     0.57810   0.21650   0.39480   0.01267  Uiso   1.00
H7     H     0.77790   0.04820   0.33990   0.01267  Uiso   1.00
H8     H     0.98020   0.17600   0.21990   0.01267  Uiso   1.00
H9     H     0.12150   0.01870   0.32100   0.01267  Uiso   1.00
H10    H     0.16960   0.91080   0.26890   0.01267  Uiso   1.00
H11    H     0.35760   0.83590   0.31490   0.01267  Uiso   1.00
H12    H     0.49500   0.87060   0.40480   0.01267  Uiso   1.00
H13    H     0.03980   0.27000   0.38030   0.01267  Uiso   1.00
H14    H     0.97290   0.39480   0.38870   0.01267  Uiso   1.00
H15    H     0.11780   0.33990   0.61190   0.01267  Uiso   1.00
H16    H     0.20010   0.21990   0.60410   0.01267  Uiso   1.00
H17    H     0.44250   0.32100   0.66030   0.01267  Uiso   1.00
H18    H     0.43850   0.26890   0.82030   0.01267  Uiso   1.00
H19    H     0.67250   0.31490   0.84920   0.01267  Uiso   1.00
H20    H     0.89980   0.40480   0.72460   0.01267  Uiso   1.00
H21    H     0.42010   0.38030   0.34970   0.01267  Uiso   1.00
H22    H     0.36160   0.38870   0.21650   0.01267  Uiso   1.00
H23    H     0.72970   0.61190   0.04820   0.01267  Uiso   1.00
H24    H     0.80420   0.60410   0.17600   0.01267  Uiso   1.00
H25    H     0.89720   0.33970   0.98130   0.01267  Uiso   1.00
H26    H     0.74120   0.17970   0.08920   0.01267  Uiso   1.00
H27    H     0.47830   0.15080   0.16410   0.01267  Uiso   1.00
H28    H     0.37560   0.27540   0.12940   0.01267  Uiso   1.00
H29    H     0.23020   0.65030   0.73000   0.01267  Uiso   1.00
H30    H     0.42190   0.78350   0.60520   0.01267  Uiso   1.00
H31    H     0.22210   0.95180   0.66010   0.01267  Uiso   1.00
H32    H     0.01980   0.82400   0.78010   0.01267  Uiso   1.00
H33    H     0.87850   0.98130   0.67900   0.01267  Uiso   1.00
H34    H     0.83040   0.08920   0.73110   0.01267  Uiso   1.00
H35    H     0.64240   0.16410   0.68510   0.01267  Uiso   1.00
H36    H     0.50500   0.12940   0.59520   0.01267  Uiso   1.00
H37    H     0.96020   0.73000   0.61970   0.01267  Uiso   1.00
H38    H     0.02710   0.60520   0.61130   0.01267  Uiso   1.00
H39    H     0.88220   0.66010   0.38810   0.01267  Uiso   1.00
H40    H     0.79990   0.78010   0.39590   0.01267  Uiso   1.00
H41    H     0.55750   0.67900   0.33970   0.01267  Uiso   1.00
H42    H     0.56150   0.73110   0.17970   0.01267  Uiso   1.00
H43    H     0.32750   0.68510   0.15080   0.01267  Uiso   1.00
H44    H     0.10020   0.59520   0.27540   0.01267  Uiso   1.00
H45    H     0.57990   0.61970   0.65030   0.01267  Uiso   1.00
H46    H     0.63840   0.61130   0.78350   0.01267  Uiso   1.00
H47    H     0.27030   0.38810   0.95180   0.01267  Uiso   1.00
H48    H     0.19580   0.39590   0.82400   0.01267  Uiso   1.00
C1     C     0.19438   0.50041   0.06887   0.01267  Uiso   1.00
C2     C     0.03867   0.36154   0.16163   0.01267  Uiso   1.00
C3     C     0.27630   0.60228   0.00658   0.01267  Uiso   1.00
C4     C     0.20850   0.67450   0.98850   0.01267  Uiso   1.00
C5     C     0.30080   0.76960   0.92400   0.01267  Uiso   1.00
C6     C     0.45780   0.78660   0.87980   0.01267  Uiso   1.00
C7     C     0.51900   0.71130   0.90080   0.01267  Uiso   1.00
C8     C     0.90349   0.27969   0.23272   0.01267  Uiso   1.00
C9     C     0.77673   0.28876   0.28487   0.01267  Uiso   1.00
C10    C     0.65965   0.20790   0.35905   0.01267  Uiso   1.00
C11    C     0.77788   0.10973   0.32739   0.01267  Uiso   1.00
C12    C     0.89983   0.18626   0.25467   0.01267  Uiso   1.00
C13    C     0.26325   0.06887   0.43072   0.01267  Uiso   1.00
C14    C     0.20030   0.16163   0.47683   0.01267  Uiso   1.00
C15    C     0.28288   0.00658   0.39114   0.01267  Uiso   1.00
C16    C     0.19700   0.98850   0.33700   0.01267  Uiso   1.00
C17    C     0.22480   0.92400   0.30640   0.01267  Uiso   1.00
C18    C     0.33760   0.87980   0.33360   0.01267  Uiso   1.00
C19    C     0.41980   0.90080   0.38790   0.01267  Uiso   1.00
C20    C     0.13621   0.23272   0.48759   0.01267  Uiso   1.00
C21    C     0.06160   0.28487   0.42637   0.01267  Uiso   1.00
C22    C     0.01870   0.35905   0.43305   0.01267  Uiso   1.00
C23    C     0.10527   0.32739   0.56288   0.01267  Uiso   1.00
C24    C     0.15450   0.25467   0.55907   0.01267  Uiso   1.00
C25    C     0.69397   0.43072   0.50041   0.01267  Uiso   1.00
C26    C     0.67713   0.47683   0.36154   0.01267  Uiso   1.00
C27    C     0.67402   0.39114   0.60228   0.01267  Uiso   1.00
C28    C     0.53400   0.33700   0.67450   0.01267  Uiso   1.00
C29    C     0.53120   0.30640   0.76960   0.01267  Uiso   1.00
C30    C     0.67120   0.33360   0.78660   0.01267  Uiso   1.00
C31    C     0.80770   0.38790   0.71130   0.01267  Uiso   1.00
C32    C     0.62380   0.48759   0.27969   0.01267  Uiso   1.00
C33    C     0.48797   0.42637   0.28876   0.01267  Uiso   1.00
C34    C     0.45175   0.43305   0.20790   0.01267  Uiso   1.00
C35    C     0.66815   0.56288   0.10973   0.01267  Uiso   1.00
C36    C     0.71357   0.55907   0.18626   0.01267  Uiso   1.00
C37    C     0.80562   0.49959   0.93113   0.01267  Uiso   1.00
C38    C     0.96133   0.63846   0.83837   0.01267  Uiso   1.00
C39    C     0.72370   0.39772   0.99342   0.01267  Uiso   1.00
C40    C     0.79150   0.32550   0.01150   0.01267  Uiso   1.00
C41    C     0.69920   0.23040   0.07600   0.01267  Uiso   1.00
C42    C     0.54220   0.21340   0.12020   0.01267  Uiso   1.00
C43    C     0.48100   0.28870   0.09920   0.01267  Uiso   1.00
C44    C     0.09651   0.72031   0.76728   0.01267  Uiso   1.00
C45    C     0.22327   0.71124   0.71513   0.01267  Uiso   1.00
C46    C     0.34035   0.79210   0.64095   0.01267  Uiso   1.00
C47    C     0.22212   0.89027   0.67261   0.01267  Uiso   1.00
C48    C     0.10017   0.81374   0.74533   0.01267  Uiso   1.00
C49    C     0.73675   0.93113   0.56928   0.01267  Uiso   1.00
C50    C     0.79970   0.83837   0.52317   0.01267  Uiso   1.00
C51    C     0.71712   0.99342   0.60886   0.01267  Uiso   1.00
C52    C     0.80300   0.01150   0.66300   0.01267  Uiso   1.00
C53    C     0.77520   0.07600   0.69360   0.01267  Uiso   1.00
C54    C     0.66240   0.12020   0.66640   0.01267  Uiso   1.00
C55    C     0.58020   0.09920   0.61210   0.01267  Uiso   1.00
C56    C     0.86379   0.76728   0.51241   0.01267  Uiso   1.00
C57    C     0.93840   0.71513   0.57363   0.01267  Uiso   1.00
C58    C     0.98130   0.64095   0.56695   0.01267  Uiso   1.00
C59    C     0.89473   0.67261   0.43712   0.01267  Uiso   1.00
C60    C     0.84550   0.74533   0.44093   0.01267  Uiso   1.00
C61    C     0.30603   0.56928   0.49959   0.01267  Uiso   1.00
C62    C     0.32287   0.52317   0.63846   0.01267  Uiso   1.00
C63    C     0.32598   0.60886   0.39772   0.01267  Uiso   1.00
C64    C     0.46600   0.66300   0.32550   0.01267  Uiso   1.00
C65    C     0.46880   0.69360   0.23040   0.01267  Uiso   1.00
C66    C     0.32880   0.66640   0.21340   0.01267  Uiso   1.00
C67    C     0.19230   0.61210   0.28870   0.01267  Uiso   1.00
C68    C     0.37620   0.51241   0.72031   0.01267  Uiso   1.00
C69    C     0.51203   0.57363   0.71124   0.01267  Uiso   1.00
C70    C     0.54825   0.56695   0.79210   0.01267  Uiso   1.00
C71    C     0.33185   0.43712   0.89027   0.01267  Uiso   1.00
C72    C     0.28643   0.44093   0.81374   0.01267  Uiso   1.00
N1     N     0.27542   0.43970   0.07074   0.01267  Uiso   1.00
N2     N     0.17577   0.34884   0.12973   0.01267  Uiso   1.00
N3     N     0.04312   0.45520   0.12524   0.01267  Uiso   1.00
N4     N     0.43205   0.61904   0.96349   0.01267  Uiso   1.00
N5     N     0.65744   0.11762   0.38220   0.01267  Uiso   1.00
N6     N     0.34616   0.07074   0.48956   0.01267  Uiso   1.00
N7     N     0.30550   0.12973   0.52143   0.01267  Uiso   1.00
N8     N     0.16836   0.12524   0.41956   0.01267  Uiso   1.00
N9     N     0.39554   0.96349   0.41747   0.01267  Uiso   1.00
N10    N     0.03964   0.38220   0.50018   0.01267  Uiso   1.00
N11    N     0.83572   0.48956   0.43970   0.01267  Uiso   1.00
N12    N     0.82693   0.52143   0.34884   0.01267  Uiso   1.00
N13    N     0.58792   0.41956   0.45520   0.01267  Uiso   1.00
N14    N     0.81301   0.41747   0.61904   0.01267  Uiso   1.00
N15    N     0.53982   0.50018   0.11762   0.01267  Uiso   1.00
N16    N     0.72458   0.56030   0.92926   0.01267  Uiso   1.00
N17    N     0.82423   0.65116   0.87027   0.01267  Uiso   1.00
N18    N     0.95688   0.54480   0.87476   0.01267  Uiso   1.00
N19    N     0.56795   0.38096   0.03651   0.01267  Uiso   1.00
N20    N     0.34256   0.88238   0.61780   0.01267  Uiso   1.00
N21    N     0.65384   0.92926   0.51044   0.01267  Uiso   1.00
N22    N     0.69450   0.87027   0.47857   0.01267  Uiso   1.00
N23    N     0.83164   0.87476   0.58044   0.01267  Uiso   1.00
N24    N     0.60446   0.03651   0.58253   0.01267  Uiso   1.00
N25    N     0.96036   0.61780   0.49982   0.01267  Uiso   1.00
N26    N     0.16428   0.51044   0.56030   0.01267  Uiso   1.00
N27    N     0.17307   0.47857   0.65116   0.01267  Uiso   1.00
N28    N     0.41208   0.58044   0.54480   0.01267  Uiso   1.00
N29    N     0.18699   0.58253   0.38096   0.01267  Uiso   1.00
N30    N     0.46018   0.49982   0.88238   0.01267  Uiso   1.00
