data_HEBZEV_clean
_audit_creation_date              2014-07-02
_audit_creation_method            'Materials Studio'
_symmetry_space_group_name_H-M    'P1'
_symmetry_Int_Tables_number       1
_symmetry_cell_setting            triclinic
loop_
_symmetry_equiv_pos_as_xyz
  x,y,z
_cell_length_a                    12.0439
_cell_length_b                    12.0439
_cell_length_c                    12.0439
_cell_angle_alpha                 95.7887
_cell_angle_beta                  95.7887
_cell_angle_gamma                 95.7887
loop_
_atom_site_label
_atom_site_type_symbol
_atom_site_fract_x
_atom_site_fract_y
_atom_site_fract_z
_atom_site_U_iso_or_equiv
_atom_site_adp_type
_atom_site_occupancy
Zn1    Zn    0.05199   0.32507   0.75489   0.01267  Uiso   1.00
Zn2    Zn    0.75489   0.05199   0.32507   0.01267  Uiso   1.00
Zn3    Zn    0.32507   0.75489   0.05199   0.01267  Uiso   1.00
Zn4    Zn    0.94801   0.67493   0.24511   0.01267  Uiso   1.00
Zn5    Zn    0.24511   0.94801   0.67493   0.01267  Uiso   1.00
Zn6    Zn    0.67493   0.24511   0.94801   0.01267  Uiso   1.00
H1     H     0.12000   0.67800   0.62300   0.01267  Uiso   1.00
H2     H     0.05820   0.60320   0.52320   0.01267  Uiso   1.00
H3     H     0.30770   0.89060   0.90850   0.01267  Uiso   1.00
H4     H     0.62300   0.12000   0.67800   0.01267  Uiso   1.00
H5     H     0.52320   0.05820   0.60320   0.01267  Uiso   1.00
H6     H     0.90850   0.30770   0.89060   0.01267  Uiso   1.00
H7     H     0.67800   0.62300   0.12000   0.01267  Uiso   1.00
H8     H     0.60320   0.52320   0.05820   0.01267  Uiso   1.00
H9     H     0.89060   0.90850   0.30770   0.01267  Uiso   1.00
H10    H     0.88000   0.32200   0.37700   0.01267  Uiso   1.00
H11    H     0.94180   0.39680   0.47680   0.01267  Uiso   1.00
H12    H     0.69230   0.10940   0.09150   0.01267  Uiso   1.00
H13    H     0.37700   0.88000   0.32200   0.01267  Uiso   1.00
H14    H     0.47680   0.94180   0.39680   0.01267  Uiso   1.00
H15    H     0.09150   0.69230   0.10940   0.01267  Uiso   1.00
H16    H     0.32200   0.37700   0.88000   0.01267  Uiso   1.00
H17    H     0.39680   0.47680   0.94180   0.01267  Uiso   1.00
H18    H     0.10940   0.09150   0.69230   0.01267  Uiso   1.00
C1     C     0.15984   0.52146   0.94859   0.01267  Uiso   1.00
C2     C     0.08749   0.53733   0.66280   0.01267  Uiso   1.00
C3     C     0.13108   0.56452   0.78222   0.01267  Uiso   1.00
C4     C     0.18524   0.65742   0.85038   0.01267  Uiso   1.00
C5     C     0.22708   0.77254   0.83130   0.01267  Uiso   1.00
C6     C     0.94859   0.15984   0.52146   0.01267  Uiso   1.00
C7     C     0.66280   0.08749   0.53733   0.01267  Uiso   1.00
C8     C     0.78222   0.13108   0.56452   0.01267  Uiso   1.00
C9     C     0.85038   0.18524   0.65742   0.01267  Uiso   1.00
C10    C     0.83130   0.22708   0.77254   0.01267  Uiso   1.00
C11    C     0.52146   0.94859   0.15984   0.01267  Uiso   1.00
C12    C     0.53733   0.66280   0.08749   0.01267  Uiso   1.00
C13    C     0.56452   0.78222   0.13108   0.01267  Uiso   1.00
C14    C     0.65742   0.85038   0.18524   0.01267  Uiso   1.00
C15    C     0.77254   0.83130   0.22708   0.01267  Uiso   1.00
C16    C     0.84016   0.47854   0.05141   0.01267  Uiso   1.00
C17    C     0.91251   0.46267   0.33720   0.01267  Uiso   1.00
C18    C     0.86892   0.43548   0.21778   0.01267  Uiso   1.00
C19    C     0.81476   0.34258   0.14962   0.01267  Uiso   1.00
C20    C     0.77292   0.22746   0.16870   0.01267  Uiso   1.00
C21    C     0.05141   0.84016   0.47854   0.01267  Uiso   1.00
C22    C     0.33720   0.91251   0.46267   0.01267  Uiso   1.00
C23    C     0.21778   0.86892   0.43548   0.01267  Uiso   1.00
C24    C     0.14962   0.81476   0.34258   0.01267  Uiso   1.00
C25    C     0.16870   0.77292   0.22746   0.01267  Uiso   1.00
C26    C     0.47854   0.05141   0.84016   0.01267  Uiso   1.00
C27    C     0.46267   0.33720   0.91251   0.01267  Uiso   1.00
C28    C     0.43548   0.21778   0.86892   0.01267  Uiso   1.00
C29    C     0.34258   0.14962   0.81476   0.01267  Uiso   1.00
C30    C     0.22746   0.16870   0.77292   0.01267  Uiso   1.00
N1     N     0.20352   0.62840   0.95736   0.01267  Uiso   1.00
N2     N     0.11591   0.47816   0.84676   0.01267  Uiso   1.00
N3     N     0.09369   0.61563   0.59525   0.01267  Uiso   1.00
N4     N     0.28202   0.83217   0.91887   0.01267  Uiso   1.00
N5     N     0.95736   0.20352   0.62840   0.01267  Uiso   1.00
N6     N     0.84676   0.11591   0.47816   0.01267  Uiso   1.00
N7     N     0.59525   0.09369   0.61563   0.01267  Uiso   1.00
N8     N     0.91887   0.28202   0.83217   0.01267  Uiso   1.00
N9     N     0.62840   0.95736   0.20352   0.01267  Uiso   1.00
N10    N     0.47816   0.84676   0.11591   0.01267  Uiso   1.00
N11    N     0.61563   0.59525   0.09369   0.01267  Uiso   1.00
N12    N     0.83217   0.91887   0.28202   0.01267  Uiso   1.00
N13    N     0.79648   0.37160   0.04264   0.01267  Uiso   1.00
N14    N     0.88409   0.52184   0.15324   0.01267  Uiso   1.00
N15    N     0.90631   0.38437   0.40475   0.01267  Uiso   1.00
N16    N     0.71798   0.16783   0.08113   0.01267  Uiso   1.00
N17    N     0.04264   0.79648   0.37160   0.01267  Uiso   1.00
N18    N     0.15324   0.88409   0.52184   0.01267  Uiso   1.00
N19    N     0.40475   0.90631   0.38437   0.01267  Uiso   1.00
N20    N     0.08113   0.71798   0.16783   0.01267  Uiso   1.00
N21    N     0.37160   0.04264   0.79648   0.01267  Uiso   1.00
N22    N     0.52184   0.15324   0.88409   0.01267  Uiso   1.00
N23    N     0.38437   0.40475   0.90631   0.01267  Uiso   1.00
N24    N     0.16783   0.08113   0.71798   0.01267  Uiso   1.00
Cl1    Cl    0.15739   0.44593   0.06131   0.01267  Uiso   1.00
Cl2    Cl    0.06131   0.15739   0.44593   0.01267  Uiso   1.00
Cl3    Cl    0.44593   0.06131   0.15739   0.01267  Uiso   1.00
Cl4    Cl    0.84261   0.55407   0.93869   0.01267  Uiso   1.00
Cl5    Cl    0.93869   0.84261   0.55407   0.01267  Uiso   1.00
Cl6    Cl    0.55407   0.93869   0.84261   0.01267  Uiso   1.00
O1     O     0.04503   0.43819   0.63070   0.01267  Uiso   1.00
O2     O     0.20601   0.80255   0.73308   0.01267  Uiso   1.00
O3     O     0.63070   0.04503   0.43819   0.01267  Uiso   1.00
O4     O     0.73308   0.20601   0.80255   0.01267  Uiso   1.00
O5     O     0.43819   0.63070   0.04503   0.01267  Uiso   1.00
O6     O     0.80255   0.73308   0.20601   0.01267  Uiso   1.00
O7     O     0.95497   0.56181   0.36930   0.01267  Uiso   1.00
O8     O     0.79399   0.19745   0.26692   0.01267  Uiso   1.00
O9     O     0.36930   0.95497   0.56181   0.01267  Uiso   1.00
O10    O     0.26692   0.79399   0.19745   0.01267  Uiso   1.00
O11    O     0.56181   0.36930   0.95497   0.01267  Uiso   1.00
O12    O     0.19745   0.26692   0.79399   0.01267  Uiso   1.00
