data_IDIWOH_clean
_audit_creation_date              2014-07-02
_audit_creation_method            'Materials Studio'
_symmetry_space_group_name_H-M    'P1'
_symmetry_Int_Tables_number       1
_symmetry_cell_setting            triclinic
loop_
_symmetry_equiv_pos_as_xyz
  x,y,z
_cell_length_a                    6.8179
_cell_length_b                    13.9390
_cell_length_c                    16.1430
_cell_angle_alpha                 90.0000
_cell_angle_beta                  90.0000
_cell_angle_gamma                 90.0000
loop_
_atom_site_label
_atom_site_type_symbol
_atom_site_fract_x
_atom_site_fract_y
_atom_site_fract_z
_atom_site_U_iso_or_equiv
_atom_site_adp_type
_atom_site_occupancy
V1     V     0.79980   0.26084   0.75000   0.01267  Uiso   1.00
V2     V     0.70020   0.76084   0.25000   0.01267  Uiso   1.00
V3     V     0.20020   0.73916   0.25000   0.01267  Uiso   1.00
V4     V     0.29980   0.23916   0.75000   0.01267  Uiso   1.00
H1     H     0.79850   0.45750   0.94460   0.01267  Uiso   1.00
H2     H     0.21700   0.43890   0.94520   0.01267  Uiso   1.00
H3     H     0.70150   0.95750   0.05540   0.01267  Uiso   1.00
H4     H     0.28300   0.93890   0.05480   0.01267  Uiso   1.00
H5     H     0.20150   0.54250   0.44460   0.01267  Uiso   1.00
H6     H     0.78300   0.56110   0.44520   0.01267  Uiso   1.00
H7     H     0.29850   0.04250   0.55540   0.01267  Uiso   1.00
H8     H     0.71700   0.06110   0.55480   0.01267  Uiso   1.00
H9     H     0.20150   0.54250   0.05540   0.01267  Uiso   1.00
H10    H     0.78300   0.56110   0.05480   0.01267  Uiso   1.00
H11    H     0.29850   0.04250   0.94460   0.01267  Uiso   1.00
H12    H     0.71700   0.06110   0.94520   0.01267  Uiso   1.00
H13    H     0.79850   0.45750   0.55540   0.01267  Uiso   1.00
H14    H     0.21700   0.43890   0.55480   0.01267  Uiso   1.00
H15    H     0.70150   0.95750   0.44460   0.01267  Uiso   1.00
H16    H     0.28300   0.93890   0.44520   0.01267  Uiso   1.00
C1     C     0.67750   0.47390   0.96710   0.01267  Uiso   1.00
C2     C     0.33250   0.46310   0.96770   0.01267  Uiso   1.00
C3     C     0.50890   0.43500   0.93510   0.01267  Uiso   1.00
C4     C     0.52190   0.36670   0.86340   0.01267  Uiso   1.00
C5     C     0.82250   0.97390   0.03290   0.01267  Uiso   1.00
C6     C     0.16750   0.96310   0.03230   0.01267  Uiso   1.00
C7     C     0.99110   0.93500   0.06490   0.01267  Uiso   1.00
C8     C     0.97810   0.86670   0.13660   0.01267  Uiso   1.00
C9     C     0.32250   0.52610   0.46710   0.01267  Uiso   1.00
C10    C     0.66750   0.53690   0.46770   0.01267  Uiso   1.00
C11    C     0.49110   0.56500   0.43510   0.01267  Uiso   1.00
C12    C     0.47810   0.63330   0.36340   0.01267  Uiso   1.00
C13    C     0.17750   0.02610   0.53290   0.01267  Uiso   1.00
C14    C     0.83250   0.03690   0.53230   0.01267  Uiso   1.00
C15    C     0.00890   0.06500   0.56490   0.01267  Uiso   1.00
C16    C     0.02190   0.13330   0.63660   0.01267  Uiso   1.00
C17    C     0.32250   0.52610   0.03290   0.01267  Uiso   1.00
C18    C     0.66750   0.53690   0.03230   0.01267  Uiso   1.00
C19    C     0.49110   0.56500   0.06490   0.01267  Uiso   1.00
C20    C     0.47810   0.63330   0.13660   0.01267  Uiso   1.00
C21    C     0.17750   0.02610   0.96710   0.01267  Uiso   1.00
C22    C     0.83250   0.03690   0.96770   0.01267  Uiso   1.00
C23    C     0.00890   0.06500   0.93510   0.01267  Uiso   1.00
C24    C     0.02190   0.13330   0.86340   0.01267  Uiso   1.00
C25    C     0.67750   0.47390   0.53290   0.01267  Uiso   1.00
C26    C     0.33250   0.46310   0.53230   0.01267  Uiso   1.00
C27    C     0.50890   0.43500   0.56490   0.01267  Uiso   1.00
C28    C     0.52190   0.36670   0.63660   0.01267  Uiso   1.00
C29    C     0.82250   0.97390   0.46710   0.01267  Uiso   1.00
C30    C     0.16750   0.96310   0.46770   0.01267  Uiso   1.00
C31    C     0.99110   0.93500   0.43510   0.01267  Uiso   1.00
C32    C     0.97810   0.86670   0.36340   0.01267  Uiso   1.00
O1     O     0.68820   0.34450   0.83680   0.01267  Uiso   1.00
O2     O     0.35850   0.33350   0.83740   0.01267  Uiso   1.00
O3     O     0.81180   0.84450   0.16320   0.01267  Uiso   1.00
O4     O     0.14150   0.83350   0.16260   0.01267  Uiso   1.00
O5     O     0.31180   0.65550   0.33680   0.01267  Uiso   1.00
O6     O     0.64150   0.66650   0.33740   0.01267  Uiso   1.00
O7     O     0.18820   0.15550   0.66320   0.01267  Uiso   1.00
O8     O     0.85850   0.16650   0.66260   0.01267  Uiso   1.00
O9     O     0.31180   0.65550   0.16320   0.01267  Uiso   1.00
O10    O     0.64150   0.66650   0.16260   0.01267  Uiso   1.00
O11    O     0.18820   0.15550   0.83680   0.01267  Uiso   1.00
O12    O     0.85850   0.16650   0.83740   0.01267  Uiso   1.00
O13    O     0.68820   0.34450   0.66320   0.01267  Uiso   1.00
O14    O     0.35850   0.33350   0.66260   0.01267  Uiso   1.00
O15    O     0.81180   0.84450   0.33680   0.01267  Uiso   1.00
O16    O     0.14150   0.83350   0.33740   0.01267  Uiso   1.00
O17    O     0.52490   0.19160   0.75000   0.01267  Uiso   1.00
O18    O     0.97510   0.69160   0.25000   0.01267  Uiso   1.00
O19    O     0.47510   0.80840   0.25000   0.01267  Uiso   1.00
O20    O     0.02490   0.30840   0.75000   0.01267  Uiso   1.00
