data_IDIWOH02_clean
_audit_creation_date              2015-10-16
_audit_creation_method            'Materials Studio'
_symmetry_space_group_name_H-M    'P1'
_symmetry_Int_Tables_number       1
_symmetry_cell_setting            triclinic
loop_
_symmetry_equiv_pos_as_xyz
  x,y,z
_cell_length_a                    6.8422
_cell_length_b                    11.2560
_cell_length_c                    11.2560
_cell_angle_alpha                 75.8487
_cell_angle_beta                  72.4425
_cell_angle_gamma                 72.4426
loop_
_atom_site_label
_atom_site_type_symbol
_atom_site_fract_x
_atom_site_fract_y
_atom_site_fract_z
_atom_site_U_iso_or_equiv
_atom_site_adp_type
_atom_site_occupancy
C1     C     0.64317   0.51156   0.56241   0.01267  Uiso   1.00
C2     C     0.30035   0.48782   0.56478   0.01267  Uiso   1.00
C3     C     0.14058   0.73070   0.99488   0.01267  Uiso   1.00
C4     C     0.80035   0.06475   0.98787   0.01267  Uiso   1.00
C5     C     0.64058   0.49483   0.23074   0.01267  Uiso   1.00
C6     C     0.86366   0.26716   0.00302   0.01267  Uiso   1.00
C7     C     0.36736   0.48520   0.43591   0.01267  Uiso   1.00
C8     C     0.14317   0.06237   0.01161   0.01267  Uiso   1.00
C9     C     0.70989   0.50970   0.43308   0.01267  Uiso   1.00
C10    C     0.43787   0.50091   0.62881   0.01267  Uiso   1.00
C11    C     0.57229   0.49643   0.36924   0.01267  Uiso   1.00
C12    C     0.86735   0.93587   0.98526   0.01267  Uiso   1.00
C13    C     0.07230   0.86919   0.99648   0.01267  Uiso   1.00
C14    C     0.93787   0.12877   0.00096   0.01267  Uiso   1.00
C15    C     0.36366   0.50298   0.76720   0.01267  Uiso   1.00
C16    C     0.20989   0.93304   0.00976   0.01267  Uiso   1.00
H1     H     0.14190   0.47937   0.61801   0.01267  Uiso   1.00
H2     H     0.24734   0.11369   0.02201   0.01267  Uiso   1.00
H3     H     0.86809   0.51865   0.37966   0.01267  Uiso   1.00
H4     H     0.64189   0.11797   0.97942   0.01267  Uiso   1.00
H5     H     0.74735   0.52196   0.61373   0.01267  Uiso   1.00
H6     H     0.36809   0.87962   0.01870   0.01267  Uiso   1.00
H7     H     0.26332   0.47438   0.38482   0.01267  Uiso   1.00
H8     H     0.76331   0.88477   0.97442   0.01267  Uiso   1.00
O1     O     0.32832   0.67260   0.00500   0.01267  Uiso   1.00
O2     O     0.16919   0.50459   0.81803   0.01267  Uiso   1.00
O3     O     0.00471   0.68005   0.98371   0.01267  Uiso   1.00
O4     O     0.49888   0.50252   0.82488   0.01267  Uiso   1.00
O5     O     0.50471   0.48367   0.18008   0.01267  Uiso   1.00
O6     O     0.66919   0.31799   0.00463   0.01267  Uiso   1.00
O7     O     0.24380   0.44439   0.05345   0.01267  Uiso   1.00
O8     O     0.99887   0.32484   0.00257   0.01267  Uiso   1.00
O9     O     0.82832   0.50496   0.17264   0.01267  Uiso   1.00
O10    O     0.74380   0.55340   0.94444   0.01267  Uiso   1.00
V1     V     0.46949   0.48774   0.01028   0.01267  Uiso   1.00
V2     V     0.96949   0.51024   0.98778   0.01267  Uiso   1.00
