data_TOWPAY_clean
_audit_creation_date              2015-10-16
_audit_creation_method            'Materials Studio'
_symmetry_space_group_name_H-M    'P1'
_symmetry_Int_Tables_number       1
_symmetry_cell_setting            triclinic
loop_
_symmetry_equiv_pos_as_xyz
  x,y,z
_cell_length_a                    21.9660
_cell_length_b                    21.9660
_cell_length_c                    21.9660
_cell_angle_alpha                 90.0000
_cell_angle_beta                  90.0000
_cell_angle_gamma                 90.0000
loop_
_atom_site_label
_atom_site_type_symbol
_atom_site_fract_x
_atom_site_fract_y
_atom_site_fract_z
_atom_site_U_iso_or_equiv
_atom_site_adp_type
_atom_site_occupancy
Fe1    Fe    0.26059   0.67983   0.19633   0.01267  Uiso   1.00
Fe2    Fe    0.23941   0.30367   0.17983   0.01267  Uiso   1.00
Fe3    Fe    0.82017   0.76059   0.30367   0.01267  Uiso   1.00
Fe4    Fe    0.30367   0.82017   0.76059   0.01267  Uiso   1.00
Fe5    Fe    0.17983   0.76059   0.69633   0.01267  Uiso   1.00
Fe6    Fe    0.82017   0.23941   0.69633   0.01267  Uiso   1.00
Fe7    Fe    0.19633   0.26059   0.67983   0.01267  Uiso   1.00
Fe8    Fe    0.32017   0.19633   0.73941   0.01267  Uiso   1.00
Fe9    Fe    0.73941   0.32017   0.19633   0.01267  Uiso   1.00
Fe10   Fe    0.19633   0.73941   0.32017   0.01267  Uiso   1.00
Fe11   Fe    0.26059   0.32017   0.80367   0.01267  Uiso   1.00
Fe12   Fe    0.80367   0.73941   0.67983   0.01267  Uiso   1.00
Fe13   Fe    0.76059   0.30367   0.82017   0.01267  Uiso   1.00
Fe14   Fe    0.17983   0.23941   0.30367   0.01267  Uiso   1.00
Fe15   Fe    0.80367   0.26059   0.32017   0.01267  Uiso   1.00
Fe16   Fe    0.30367   0.17983   0.23941   0.01267  Uiso   1.00
Fe17   Fe    0.67983   0.80367   0.73941   0.01267  Uiso   1.00
Fe18   Fe    0.67983   0.19633   0.26059   0.01267  Uiso   1.00
Fe19   Fe    0.73941   0.67983   0.80367   0.01267  Uiso   1.00
Fe20   Fe    0.76059   0.69633   0.17983   0.01267  Uiso   1.00
Fe21   Fe    0.23941   0.69633   0.82017   0.01267  Uiso   1.00
Fe22   Fe    0.69633   0.82017   0.23941   0.01267  Uiso   1.00
Fe23   Fe    0.32017   0.80367   0.26059   0.01267  Uiso   1.00
Fe24   Fe    0.69633   0.17983   0.76059   0.01267  Uiso   1.00
H1     H     0.37900   0.92560   0.77700   0.01267  Uiso   1.00
H2     H     0.50870   0.25440   0.77510   0.01267  Uiso   1.00
H3     H     0.75440   0.99130   0.72490   0.01267  Uiso   1.00
H4     H     0.09320   0.10650   0.68560   0.01267  Uiso   1.00
H5     H     0.42560   0.87900   0.27700   0.01267  Uiso   1.00
H6     H     0.27700   0.42560   0.87900   0.01267  Uiso   1.00
H7     H     0.25440   0.22490   0.49130   0.01267  Uiso   1.00
H8     H     0.92240   0.69970   0.08450   0.01267  Uiso   1.00
H9     H     0.22490   0.49130   0.25440   0.01267  Uiso   1.00
H10    H     0.31440   0.90680   0.10650   0.01267  Uiso   1.00
H11    H     0.92560   0.22300   0.62100   0.01267  Uiso   1.00
H12    H     0.12100   0.27700   0.57440   0.01267  Uiso   1.00
H13    H     0.99130   0.27510   0.24560   0.01267  Uiso   1.00
H14    H     0.09320   0.89350   0.31440   0.01267  Uiso   1.00
H15    H     0.62100   0.07440   0.77700   0.01267  Uiso   1.00
H16    H     0.30030   0.08450   0.07760   0.01267  Uiso   1.00
H17    H     0.10650   0.68560   0.09320   0.01267  Uiso   1.00
H18    H     0.24560   0.99130   0.27510   0.01267  Uiso   1.00
H19    H     0.60650   0.40680   0.81440   0.01267  Uiso   1.00
H20    H     0.07440   0.77700   0.62100   0.01267  Uiso   1.00
H21    H     0.42560   0.12100   0.72300   0.01267  Uiso   1.00
H22    H     0.59320   0.81440   0.39350   0.01267  Uiso   1.00
H23    H     0.89350   0.31440   0.09320   0.01267  Uiso   1.00
H24    H     0.07760   0.69970   0.91550   0.01267  Uiso   1.00
H25    H     0.68560   0.90680   0.89350   0.01267  Uiso   1.00
H26    H     0.69970   0.91550   0.07760   0.01267  Uiso   1.00
H27    H     0.39350   0.59320   0.81440   0.01267  Uiso   1.00
H28    H     0.27510   0.24560   0.99130   0.01267  Uiso   1.00
H29    H     0.72490   0.75440   0.99130   0.01267  Uiso   1.00
H30    H     0.50870   0.74560   0.22490   0.01267  Uiso   1.00
H31    H     0.81440   0.60650   0.40680   0.01267  Uiso   1.00
H32    H     0.91550   0.07760   0.69970   0.01267  Uiso   1.00
H33    H     0.22490   0.50870   0.74560   0.01267  Uiso   1.00
H34    H     0.74560   0.77510   0.49130   0.01267  Uiso   1.00
H35    H     0.92560   0.77700   0.37900   0.01267  Uiso   1.00
H36    H     0.81440   0.39350   0.59320   0.01267  Uiso   1.00
H37    H     0.00870   0.72490   0.24560   0.01267  Uiso   1.00
H38    H     0.74560   0.22490   0.50870   0.01267  Uiso   1.00
H39    H     0.77510   0.50870   0.25440   0.01267  Uiso   1.00
H40    H     0.07440   0.22300   0.37900   0.01267  Uiso   1.00
H41    H     0.24560   0.00870   0.72490   0.01267  Uiso   1.00
H42    H     0.49130   0.74560   0.77510   0.01267  Uiso   1.00
H43    H     0.27510   0.75440   0.00870   0.01267  Uiso   1.00
H44    H     0.90680   0.89350   0.68560   0.01267  Uiso   1.00
H45    H     0.77700   0.62100   0.07440   0.01267  Uiso   1.00
H46    H     0.10650   0.31440   0.90680   0.01267  Uiso   1.00
H47    H     0.08450   0.92240   0.69970   0.01267  Uiso   1.00
H48    H     0.58450   0.19970   0.42240   0.01267  Uiso   1.00
H49    H     0.80030   0.42240   0.41550   0.01267  Uiso   1.00
H50    H     0.80030   0.57760   0.58450   0.01267  Uiso   1.00
H51    H     0.72300   0.57440   0.87900   0.01267  Uiso   1.00
H52    H     0.99130   0.72490   0.75440   0.01267  Uiso   1.00
H53    H     0.69970   0.08450   0.92240   0.01267  Uiso   1.00
H54    H     0.41550   0.80030   0.42240   0.01267  Uiso   1.00
H55    H     0.72490   0.24560   0.00870   0.01267  Uiso   1.00
H56    H     0.91550   0.92240   0.30030   0.01267  Uiso   1.00
H57    H     0.59320   0.18560   0.60650   0.01267  Uiso   1.00
H58    H     0.30030   0.91550   0.92240   0.01267  Uiso   1.00
H59    H     0.40680   0.81440   0.60650   0.01267  Uiso   1.00
H60    H     0.37900   0.07440   0.22300   0.01267  Uiso   1.00
H61    H     0.68560   0.09320   0.10650   0.01267  Uiso   1.00
H62    H     0.90680   0.10650   0.31440   0.01267  Uiso   1.00
H63    H     0.18560   0.60650   0.59320   0.01267  Uiso   1.00
H64    H     0.58450   0.80030   0.57760   0.01267  Uiso   1.00
H65    H     0.27700   0.57440   0.12100   0.01267  Uiso   1.00
H66    H     0.57760   0.58450   0.80030   0.01267  Uiso   1.00
H67    H     0.72300   0.42560   0.12100   0.01267  Uiso   1.00
H68    H     0.60650   0.59320   0.18560   0.01267  Uiso   1.00
H69    H     0.40680   0.18560   0.39350   0.01267  Uiso   1.00
H70    H     0.57440   0.12100   0.27700   0.01267  Uiso   1.00
H71    H     0.31440   0.09320   0.89350   0.01267  Uiso   1.00
H72    H     0.75440   0.00870   0.27510   0.01267  Uiso   1.00
H73    H     0.00870   0.27510   0.75440   0.01267  Uiso   1.00
H74    H     0.41550   0.19970   0.57760   0.01267  Uiso   1.00
H75    H     0.42240   0.58450   0.19970   0.01267  Uiso   1.00
H76    H     0.42240   0.41550   0.80030   0.01267  Uiso   1.00
H77    H     0.87900   0.27700   0.42560   0.01267  Uiso   1.00
H78    H     0.57760   0.41550   0.19970   0.01267  Uiso   1.00
H79    H     0.18560   0.39350   0.40680   0.01267  Uiso   1.00
H80    H     0.49130   0.25440   0.22490   0.01267  Uiso   1.00
H81    H     0.19970   0.57760   0.41550   0.01267  Uiso   1.00
H82    H     0.39350   0.40680   0.18560   0.01267  Uiso   1.00
H83    H     0.89350   0.68560   0.90680   0.01267  Uiso   1.00
H84    H     0.25440   0.77510   0.50870   0.01267  Uiso   1.00
H85    H     0.62100   0.92560   0.22300   0.01267  Uiso   1.00
H86    H     0.19970   0.42240   0.58450   0.01267  Uiso   1.00
H87    H     0.77700   0.37900   0.92560   0.01267  Uiso   1.00
H88    H     0.22300   0.37900   0.07440   0.01267  Uiso   1.00
H89    H     0.87900   0.72300   0.57440   0.01267  Uiso   1.00
H90    H     0.12100   0.72300   0.42560   0.01267  Uiso   1.00
H91    H     0.07760   0.30030   0.08450   0.01267  Uiso   1.00
H92    H     0.22300   0.62100   0.92560   0.01267  Uiso   1.00
H93    H     0.57440   0.87900   0.72300   0.01267  Uiso   1.00
H94    H     0.92240   0.30030   0.91550   0.01267  Uiso   1.00
H95    H     0.08450   0.07760   0.30030   0.01267  Uiso   1.00
H96    H     0.77510   0.49130   0.74560   0.01267  Uiso   1.00
C1     C     0.19500   0.56892   0.61253   0.01267  Uiso   1.00
C2     C     0.80166   0.10414   0.72230   0.01267  Uiso   1.00
C3     C     0.19834   0.10414   0.27770   0.01267  Uiso   1.00
C4     C     0.88747   0.06892   0.30500   0.01267  Uiso   1.00
C5     C     0.27770   0.19834   0.10414   0.01267  Uiso   1.00
C6     C     0.30166   0.22230   0.60414   0.01267  Uiso   1.00
C7     C     0.39265   0.79690   0.45895   0.01267  Uiso   1.00
C8     C     0.29093   0.79330   0.62529   0.01267  Uiso   1.00
C9     C     0.72230   0.80166   0.10414   0.01267  Uiso   1.00
C10    C     0.95895   0.29690   0.89265   0.01267  Uiso   1.00
C11    C     0.04253   0.71380   0.82999   0.01267  Uiso   1.00
C12    C     0.29093   0.20670   0.37471   0.01267  Uiso   1.00
C13    C     0.93108   0.69500   0.88747   0.01267  Uiso   1.00
C14    C     0.29673   0.78364   0.51043   0.01267  Uiso   1.00
C15    C     0.82461   0.93306   0.70646   0.01267  Uiso   1.00
C16    C     0.61253   0.19500   0.56892   0.01267  Uiso   1.00
C17    C     0.51043   0.29673   0.78364   0.01267  Uiso   1.00
C18    C     0.45895   0.39265   0.79690   0.01267  Uiso   1.00
C19    C     0.51604   0.42077   0.80260   0.01267  Uiso   1.00
C20    C     0.67001   0.21380   0.45747   0.01267  Uiso   1.00
C21    C     0.45747   0.32999   0.78620   0.01267  Uiso   1.00
C22    C     0.20327   0.01043   0.71636   0.01267  Uiso   1.00
C23    C     0.28364   0.20327   0.98957   0.01267  Uiso   1.00
C24    C     0.04253   0.28620   0.17001   0.01267  Uiso   1.00
C25    C     0.69834   0.22230   0.39586   0.01267  Uiso   1.00
C26    C     0.20327   0.98957   0.28364   0.01267  Uiso   1.00
C27    C     0.07923   0.98396   0.30260   0.01267  Uiso   1.00
C28    C     0.21380   0.45747   0.67001   0.01267  Uiso   1.00
C29    C     0.29690   0.89265   0.95895   0.01267  Uiso   1.00
C30    C     0.01043   0.28364   0.79673   0.01267  Uiso   1.00
C31    C     0.39586   0.69834   0.22230   0.01267  Uiso   1.00
C32    C     0.71380   0.17001   0.95747   0.01267  Uiso   1.00
C33    C     0.20646   0.56694   0.67539   0.01267  Uiso   1.00
C34    C     0.48396   0.57923   0.80260   0.01267  Uiso   1.00
C35    C     0.32999   0.78620   0.45747   0.01267  Uiso   1.00
C36    C     0.70327   0.21636   0.51043   0.01267  Uiso   1.00
C37    C     0.54105   0.60735   0.79690   0.01267  Uiso   1.00
C38    C     0.29330   0.79093   0.12529   0.01267  Uiso   1.00
C39    C     0.27770   0.80166   0.89586   0.01267  Uiso   1.00
C40    C     0.29354   0.17539   0.93306   0.01267  Uiso   1.00
C41    C     0.70907   0.20670   0.62529   0.01267  Uiso   1.00
C42    C     0.69500   0.88747   0.93108   0.01267  Uiso   1.00
C43    C     0.67539   0.79354   0.43306   0.01267  Uiso   1.00
C44    C     0.93306   0.70646   0.82461   0.01267  Uiso   1.00
C45    C     0.89265   0.95895   0.29690   0.01267  Uiso   1.00
C46    C     0.79093   0.87471   0.70670   0.01267  Uiso   1.00
C47    C     0.78364   0.48957   0.70327   0.01267  Uiso   1.00
C48    C     0.72230   0.19834   0.89586   0.01267  Uiso   1.00
C49    C     0.80500   0.43108   0.61253   0.01267  Uiso   1.00
C50    C     0.87471   0.70670   0.79093   0.01267  Uiso   1.00
C51    C     0.70646   0.17539   0.06694   0.01267  Uiso   1.00
C52    C     0.20646   0.43306   0.32461   0.01267  Uiso   1.00
C53    C     0.80260   0.51604   0.42077   0.01267  Uiso   1.00
C54    C     0.70646   0.82461   0.93306   0.01267  Uiso   1.00
C55    C     0.32999   0.21380   0.54253   0.01267  Uiso   1.00
C56    C     0.95895   0.70310   0.10735   0.01267  Uiso   1.00
C57    C     0.79673   0.98957   0.71636   0.01267  Uiso   1.00
C58    C     0.19834   0.89586   0.72230   0.01267  Uiso   1.00
C59    C     0.21380   0.54253   0.32999   0.01267  Uiso   1.00
C60    C     0.56892   0.61253   0.19500   0.01267  Uiso   1.00
C61    C     0.70310   0.10735   0.95895   0.01267  Uiso   1.00
C62    C     0.82999   0.04253   0.71380   0.01267  Uiso   1.00
C63    C     0.80166   0.89586   0.27770   0.01267  Uiso   1.00
C64    C     0.70670   0.20907   0.12529   0.01267  Uiso   1.00
C65    C     0.48957   0.29673   0.21636   0.01267  Uiso   1.00
C66    C     0.89586   0.72230   0.19834   0.01267  Uiso   1.00
C67    C     0.60735   0.20310   0.45895   0.01267  Uiso   1.00
C68    C     0.77770   0.39586   0.30166   0.01267  Uiso   1.00
C69    C     0.79330   0.37471   0.70907   0.01267  Uiso   1.00
C70    C     0.12529   0.70670   0.20907   0.01267  Uiso   1.00
C71    C     0.92077   0.98396   0.69740   0.01267  Uiso   1.00
C72    C     0.60735   0.79690   0.54105   0.01267  Uiso   1.00
C73    C     0.11253   0.93108   0.30500   0.01267  Uiso   1.00
C74    C     0.21636   0.48957   0.29673   0.01267  Uiso   1.00
C75    C     0.28620   0.82999   0.95747   0.01267  Uiso   1.00
C76    C     0.42077   0.19740   0.48396   0.01267  Uiso   1.00
C77    C     0.79330   0.62529   0.29093   0.01267  Uiso   1.00
C78    C     0.89586   0.27770   0.80166   0.01267  Uiso   1.00
C79    C     0.82461   0.06694   0.29354   0.01267  Uiso   1.00
C80    C     0.22230   0.39586   0.69834   0.01267  Uiso   1.00
C81    C     0.19740   0.51604   0.57923   0.01267  Uiso   1.00
C82    C     0.95747   0.71380   0.17001   0.01267  Uiso   1.00
C83    C     0.30260   0.92077   0.01604   0.01267  Uiso   1.00
C84    C     0.04105   0.70310   0.89265   0.01267  Uiso   1.00
C85    C     0.79354   0.43306   0.67539   0.01267  Uiso   1.00
C86    C     0.69834   0.77770   0.60414   0.01267  Uiso   1.00
C87    C     0.54253   0.32999   0.21380   0.01267  Uiso   1.00
C88    C     0.51043   0.70327   0.21636   0.01267  Uiso   1.00
C89    C     0.67539   0.20646   0.56694   0.01267  Uiso   1.00
C90    C     0.78364   0.51043   0.29673   0.01267  Uiso   1.00
C91    C     0.38747   0.80500   0.56892   0.01267  Uiso   1.00
C92    C     0.62529   0.70907   0.20670   0.01267  Uiso   1.00
C93    C     0.67001   0.78620   0.54253   0.01267  Uiso   1.00
C94    C     0.56892   0.38747   0.80500   0.01267  Uiso   1.00
C95    C     0.38747   0.19500   0.43108   0.01267  Uiso   1.00
C96    C     0.45747   0.67001   0.21380   0.01267  Uiso   1.00
C97    C     0.29330   0.20907   0.87471   0.01267  Uiso   1.00
C98    C     0.71380   0.82999   0.04253   0.01267  Uiso   1.00
C99    C     0.37471   0.70907   0.79330   0.01267  Uiso   1.00
C100   C     0.19740   0.48396   0.42077   0.01267  Uiso   1.00
C101   C     0.39265   0.20310   0.54105   0.01267  Uiso   1.00
C102   C     0.78620   0.54253   0.67001   0.01267  Uiso   1.00
C103   C     0.98396   0.30260   0.07923   0.01267  Uiso   1.00
C104   C     0.70670   0.79093   0.87471   0.01267  Uiso   1.00
C105   C     0.37471   0.29093   0.20670   0.01267  Uiso   1.00
C106   C     0.10735   0.95895   0.70310   0.01267  Uiso   1.00
C107   C     0.93108   0.30500   0.11253   0.01267  Uiso   1.00
C108   C     0.20907   0.12529   0.70670   0.01267  Uiso   1.00
C109   C     0.60414   0.30166   0.22230   0.01267  Uiso   1.00
C110   C     0.39586   0.30166   0.77770   0.01267  Uiso   1.00
C111   C     0.32461   0.20646   0.43306   0.01267  Uiso   1.00
C112   C     0.19500   0.43108   0.38747   0.01267  Uiso   1.00
C113   C     0.48957   0.70327   0.78364   0.01267  Uiso   1.00
C114   C     0.01604   0.69740   0.07923   0.01267  Uiso   1.00
C115   C     0.32461   0.79354   0.56694   0.01267  Uiso   1.00
C116   C     0.10735   0.04105   0.29690   0.01267  Uiso   1.00
C117   C     0.51604   0.57923   0.19740   0.01267  Uiso   1.00
C118   C     0.79354   0.56694   0.32461   0.01267  Uiso   1.00
C119   C     0.20670   0.37471   0.29093   0.01267  Uiso   1.00
C120   C     0.04105   0.29690   0.10735   0.01267  Uiso   1.00
C121   C     0.43306   0.67539   0.79354   0.01267  Uiso   1.00
C122   C     0.30260   0.07923   0.98396   0.01267  Uiso   1.00
C123   C     0.43108   0.61253   0.80500   0.01267  Uiso   1.00
C124   C     0.28620   0.17001   0.04253   0.01267  Uiso   1.00
C125   C     0.54253   0.67001   0.78620   0.01267  Uiso   1.00
C126   C     0.82999   0.95747   0.28620   0.01267  Uiso   1.00
C127   C     0.12529   0.29330   0.79093   0.01267  Uiso   1.00
C128   C     0.79093   0.12529   0.29330   0.01267  Uiso   1.00
C129   C     0.43306   0.32461   0.20646   0.01267  Uiso   1.00
C130   C     0.93306   0.29354   0.17539   0.01267  Uiso   1.00
C131   C     0.69740   0.92077   0.98396   0.01267  Uiso   1.00
C132   C     0.01043   0.71636   0.20327   0.01267  Uiso   1.00
C133   C     0.20310   0.54105   0.39265   0.01267  Uiso   1.00
C134   C     0.54105   0.39265   0.20310   0.01267  Uiso   1.00
C135   C     0.70907   0.79330   0.37471   0.01267  Uiso   1.00
C136   C     0.79690   0.45895   0.39265   0.01267  Uiso   1.00
C137   C     0.98396   0.69740   0.92077   0.01267  Uiso   1.00
C138   C     0.42077   0.80260   0.51604   0.01267  Uiso   1.00
C139   C     0.43108   0.38747   0.19500   0.01267  Uiso   1.00
C140   C     0.92077   0.01604   0.30260   0.01267  Uiso   1.00
C141   C     0.57923   0.80260   0.48396   0.01267  Uiso   1.00
C142   C     0.06694   0.70646   0.17539   0.01267  Uiso   1.00
C143   C     0.89265   0.04105   0.70310   0.01267  Uiso   1.00
C144   C     0.45895   0.60735   0.20310   0.01267  Uiso   1.00
C145   C     0.80260   0.48396   0.57923   0.01267  Uiso   1.00
C146   C     0.29673   0.21636   0.48957   0.01267  Uiso   1.00
C147   C     0.30500   0.88747   0.06892   0.01267  Uiso   1.00
C148   C     0.10414   0.27770   0.19834   0.01267  Uiso   1.00
C149   C     0.56694   0.32461   0.79354   0.01267  Uiso   1.00
C150   C     0.11253   0.06892   0.69500   0.01267  Uiso   1.00
C151   C     0.06694   0.29354   0.82461   0.01267  Uiso   1.00
C152   C     0.70310   0.89265   0.04105   0.01267  Uiso   1.00
C153   C     0.30166   0.77770   0.39586   0.01267  Uiso   1.00
C154   C     0.88747   0.93108   0.69500   0.01267  Uiso   1.00
C155   C     0.98957   0.28364   0.20327   0.01267  Uiso   1.00
C156   C     0.61253   0.80500   0.43108   0.01267  Uiso   1.00
C157   C     0.56694   0.67539   0.20646   0.01267  Uiso   1.00
C158   C     0.28364   0.79673   0.01043   0.01267  Uiso   1.00
C159   C     0.71636   0.20327   0.01043   0.01267  Uiso   1.00
C160   C     0.10414   0.72230   0.80166   0.01267  Uiso   1.00
C161   C     0.78620   0.45747   0.32999   0.01267  Uiso   1.00
C162   C     0.79673   0.01043   0.28364   0.01267  Uiso   1.00
C163   C     0.30500   0.11253   0.93108   0.01267  Uiso   1.00
C164   C     0.48396   0.42077   0.19740   0.01267  Uiso   1.00
C165   C     0.20670   0.62529   0.70907   0.01267  Uiso   1.00
C166   C     0.29354   0.82461   0.06694   0.01267  Uiso   1.00
C167   C     0.70327   0.78364   0.48957   0.01267  Uiso   1.00
C168   C     0.95747   0.28620   0.82999   0.01267  Uiso   1.00
C169   C     0.17539   0.06694   0.70646   0.01267  Uiso   1.00
C170   C     0.22230   0.60414   0.30166   0.01267  Uiso   1.00
C171   C     0.79690   0.54105   0.60735   0.01267  Uiso   1.00
C172   C     0.87471   0.29330   0.20907   0.01267  Uiso   1.00
C173   C     0.20907   0.87471   0.29330   0.01267  Uiso   1.00
C174   C     0.80500   0.56892   0.38747   0.01267  Uiso   1.00
C175   C     0.60414   0.69834   0.77770   0.01267  Uiso   1.00
C176   C     0.01604   0.30260   0.92077   0.01267  Uiso   1.00
C177   C     0.69500   0.11253   0.06892   0.01267  Uiso   1.00
C178   C     0.17001   0.04253   0.28620   0.01267  Uiso   1.00
C179   C     0.69740   0.07923   0.01604   0.01267  Uiso   1.00
C180   C     0.98957   0.71636   0.79673   0.01267  Uiso   1.00
C181   C     0.57923   0.19740   0.51604   0.01267  Uiso   1.00
C182   C     0.07923   0.01604   0.69740   0.01267  Uiso   1.00
C183   C     0.29690   0.10735   0.04105   0.01267  Uiso   1.00
C184   C     0.71636   0.79673   0.98957   0.01267  Uiso   1.00
C185   C     0.17001   0.95747   0.71380   0.01267  Uiso   1.00
C186   C     0.17539   0.93306   0.29354   0.01267  Uiso   1.00
C187   C     0.06892   0.30500   0.88747   0.01267  Uiso   1.00
C188   C     0.21636   0.51043   0.70327   0.01267  Uiso   1.00
C189   C     0.77770   0.60414   0.69834   0.01267  Uiso   1.00
C190   C     0.62529   0.29093   0.79330   0.01267  Uiso   1.00
C191   C     0.20310   0.45895   0.60735   0.01267  Uiso   1.00
C192   C     0.06892   0.69500   0.11253   0.01267  Uiso   1.00
N1     N     0.01540   0.02326   0.69120   0.01267  Uiso   1.00
N2     N     0.52326   0.48460   0.80880   0.01267  Uiso   1.00
N3     N     0.47674   0.51540   0.80880   0.01267  Uiso   1.00
N4     N     0.19120   0.52326   0.51540   0.01267  Uiso   1.00
N5     N     0.48460   0.19120   0.47674   0.01267  Uiso   1.00
N6     N     0.02326   0.30880   0.98460   0.01267  Uiso   1.00
N7     N     0.30880   0.01540   0.97674   0.01267  Uiso   1.00
N8     N     0.02326   0.69120   0.01540   0.01267  Uiso   1.00
N9     N     0.52326   0.51540   0.19120   0.01267  Uiso   1.00
N10    N     0.69120   0.01540   0.02326   0.01267  Uiso   1.00
N11    N     0.01540   0.97674   0.30880   0.01267  Uiso   1.00
N12    N     0.51540   0.80880   0.47674   0.01267  Uiso   1.00
N13    N     0.97674   0.30880   0.01540   0.01267  Uiso   1.00
N14    N     0.19120   0.47674   0.48460   0.01267  Uiso   1.00
N15    N     0.98460   0.02326   0.30880   0.01267  Uiso   1.00
N16    N     0.97674   0.69120   0.98460   0.01267  Uiso   1.00
N17    N     0.47674   0.48460   0.19120   0.01267  Uiso   1.00
N18    N     0.69120   0.98460   0.97674   0.01267  Uiso   1.00
N19    N     0.30880   0.98460   0.02326   0.01267  Uiso   1.00
N20    N     0.98460   0.97674   0.69120   0.01267  Uiso   1.00
N21    N     0.80880   0.47674   0.51540   0.01267  Uiso   1.00
N22    N     0.80880   0.52326   0.48460   0.01267  Uiso   1.00
N23    N     0.51540   0.19120   0.52326   0.01267  Uiso   1.00
N24    N     0.48460   0.80880   0.52326   0.01267  Uiso   1.00
O1     O     0.61505   0.87056   0.73674   0.01267  Uiso   1.00
O2     O     0.10716   0.74538   0.75045   0.01267  Uiso   1.00
O3     O     0.25950   0.25950   0.74050   0.01267  Uiso   1.00
O4     O     0.20380   0.35125   0.66681   0.01267  Uiso   1.00
O5     O     0.22654   0.62558   0.76214   0.01267  Uiso   1.00
O6     O     0.87442   0.27346   0.26214   0.01267  Uiso   1.00
O7     O     0.79620   0.64875   0.66681   0.01267  Uiso   1.00
O8     O     0.25462   0.24955   0.10716   0.01267  Uiso   1.00
O9     O     0.68046   0.81339   0.32902   0.01267  Uiso   1.00
O10    O     0.75462   0.39284   0.25045   0.01267  Uiso   1.00
O11    O     0.24050   0.24050   0.24050   0.01267  Uiso   1.00
O12    O     0.88495   0.76326   0.37056   0.01267  Uiso   1.00
O13    O     0.77346   0.62558   0.23786   0.01267  Uiso   1.00
O14    O     0.83319   0.14875   0.70380   0.01267  Uiso   1.00
O15    O     0.37442   0.76214   0.77346   0.01267  Uiso   1.00
O16    O     0.87442   0.72654   0.73786   0.01267  Uiso   1.00
O17    O     0.26214   0.12558   0.72654   0.01267  Uiso   1.00
O18    O     0.31954   0.18661   0.32902   0.01267  Uiso   1.00
O19    O     0.12558   0.72654   0.26214   0.01267  Uiso   1.00
O20    O     0.29620   0.16681   0.14875   0.01267  Uiso   1.00
O21    O     0.74955   0.24538   0.39284   0.01267  Uiso   1.00
O22    O     0.75950   0.75950   0.24050   0.01267  Uiso   1.00
O23    O     0.23786   0.77346   0.62558   0.01267  Uiso   1.00
O24    O     0.81954   0.82902   0.68661   0.01267  Uiso   1.00
O25    O     0.74050   0.25950   0.25950   0.01267  Uiso   1.00
O26    O     0.74955   0.75462   0.60716   0.01267  Uiso   1.00
O27    O     0.73786   0.87442   0.72654   0.01267  Uiso   1.00
O28    O     0.24538   0.60716   0.25045   0.01267  Uiso   1.00
O29    O     0.64875   0.33319   0.20380   0.01267  Uiso   1.00
O30    O     0.35125   0.33319   0.79620   0.01267  Uiso   1.00
O31    O     0.29620   0.83319   0.85125   0.01267  Uiso   1.00
O32    O     0.25045   0.24538   0.60716   0.01267  Uiso   1.00
O33    O     0.74538   0.75045   0.10716   0.01267  Uiso   1.00
O34    O     0.85125   0.29620   0.83319   0.01267  Uiso   1.00
O35    O     0.82902   0.68661   0.81954   0.01267  Uiso   1.00
O36    O     0.73674   0.38495   0.12944   0.01267  Uiso   1.00
O37    O     0.26214   0.87442   0.27346   0.01267  Uiso   1.00
O38    O     0.74050   0.74050   0.74050   0.01267  Uiso   1.00
O39    O     0.24955   0.10716   0.25462   0.01267  Uiso   1.00
O40    O     0.39284   0.74955   0.24538   0.01267  Uiso   1.00
O41    O     0.18661   0.32902   0.31954   0.01267  Uiso   1.00
O42    O     0.76214   0.22654   0.62558   0.01267  Uiso   1.00
O43    O     0.23674   0.62944   0.88495   0.01267  Uiso   1.00
O44    O     0.83319   0.85125   0.29620   0.01267  Uiso   1.00
O45    O     0.18046   0.82902   0.31339   0.01267  Uiso   1.00
O46    O     0.31339   0.18046   0.82902   0.01267  Uiso   1.00
O47    O     0.20380   0.64875   0.33319   0.01267  Uiso   1.00
O48    O     0.72654   0.26214   0.12558   0.01267  Uiso   1.00
O49    O     0.37442   0.23786   0.22654   0.01267  Uiso   1.00
O50    O     0.60716   0.74955   0.75462   0.01267  Uiso   1.00
O51    O     0.75950   0.24050   0.75950   0.01267  Uiso   1.00
O52    O     0.38495   0.87056   0.26326   0.01267  Uiso   1.00
O53    O     0.60716   0.25045   0.24538   0.01267  Uiso   1.00
O54    O     0.81339   0.32902   0.68046   0.01267  Uiso   1.00
O55    O     0.22654   0.37442   0.23786   0.01267  Uiso   1.00
O56    O     0.87056   0.73674   0.61505   0.01267  Uiso   1.00
O57    O     0.31339   0.81954   0.17098   0.01267  Uiso   1.00
O58    O     0.35125   0.66681   0.20380   0.01267  Uiso   1.00
O59    O     0.61505   0.12944   0.26326   0.01267  Uiso   1.00
O60    O     0.75462   0.60716   0.74955   0.01267  Uiso   1.00
O61    O     0.76214   0.77346   0.37442   0.01267  Uiso   1.00
O62    O     0.16681   0.14875   0.29620   0.01267  Uiso   1.00
O63    O     0.10716   0.25462   0.24955   0.01267  Uiso   1.00
O64    O     0.79620   0.35125   0.33319   0.01267  Uiso   1.00
O65    O     0.27346   0.73786   0.12558   0.01267  Uiso   1.00
O66    O     0.39284   0.25045   0.75462   0.01267  Uiso   1.00
O67    O     0.68046   0.18661   0.67098   0.01267  Uiso   1.00
O68    O     0.73674   0.61505   0.87056   0.01267  Uiso   1.00
O69    O     0.24955   0.89284   0.74538   0.01267  Uiso   1.00
O70    O     0.89284   0.74538   0.24955   0.01267  Uiso   1.00
O71    O     0.17098   0.68661   0.18046   0.01267  Uiso   1.00
O72    O     0.74538   0.24955   0.89284   0.01267  Uiso   1.00
O73    O     0.66681   0.20380   0.35125   0.01267  Uiso   1.00
O74    O     0.24538   0.39284   0.74955   0.01267  Uiso   1.00
O75    O     0.62944   0.11505   0.76326   0.01267  Uiso   1.00
O76    O     0.26326   0.38495   0.87056   0.01267  Uiso   1.00
O77    O     0.68661   0.81954   0.82902   0.01267  Uiso   1.00
O78    O     0.88495   0.23674   0.62944   0.01267  Uiso   1.00
O79    O     0.25045   0.75462   0.39284   0.01267  Uiso   1.00
O80    O     0.38495   0.12944   0.73674   0.01267  Uiso   1.00
O81    O     0.76326   0.62944   0.11505   0.01267  Uiso   1.00
O82    O     0.12558   0.27346   0.73786   0.01267  Uiso   1.00
O83    O     0.14875   0.70380   0.83319   0.01267  Uiso   1.00
O84    O     0.87056   0.26326   0.38495   0.01267  Uiso   1.00
O85    O     0.75045   0.89284   0.25462   0.01267  Uiso   1.00
O86    O     0.89284   0.25462   0.75045   0.01267  Uiso   1.00
O87    O     0.66681   0.79620   0.64875   0.01267  Uiso   1.00
O88    O     0.82902   0.31339   0.18046   0.01267  Uiso   1.00
O89    O     0.33319   0.79620   0.35125   0.01267  Uiso   1.00
O90    O     0.33319   0.20380   0.64875   0.01267  Uiso   1.00
O91    O     0.62944   0.88495   0.23674   0.01267  Uiso   1.00
O92    O     0.11505   0.76326   0.62944   0.01267  Uiso   1.00
O93    O     0.25950   0.74050   0.25950   0.01267  Uiso   1.00
O94    O     0.27346   0.26214   0.87442   0.01267  Uiso   1.00
O95    O     0.85125   0.70380   0.16681   0.01267  Uiso   1.00
O96    O     0.76326   0.37056   0.88495   0.01267  Uiso   1.00
O97    O     0.72654   0.73786   0.87442   0.01267  Uiso   1.00
O98    O     0.32902   0.68046   0.81339   0.01267  Uiso   1.00
O99    O     0.18046   0.17098   0.68661   0.01267  Uiso   1.00
O100   O     0.62558   0.76214   0.22654   0.01267  Uiso   1.00
O101   O     0.67098   0.68046   0.18661   0.01267  Uiso   1.00
O102   O     0.23786   0.22654   0.37442   0.01267  Uiso   1.00
O103   O     0.70380   0.16681   0.85125   0.01267  Uiso   1.00
O104   O     0.37056   0.11505   0.23674   0.01267  Uiso   1.00
O105   O     0.11505   0.23674   0.37056   0.01267  Uiso   1.00
O106   O     0.25462   0.75045   0.89284   0.01267  Uiso   1.00
O107   O     0.16681   0.85125   0.70380   0.01267  Uiso   1.00
O108   O     0.17098   0.31339   0.81954   0.01267  Uiso   1.00
O109   O     0.67098   0.31954   0.81339   0.01267  Uiso   1.00
O110   O     0.73786   0.12558   0.27346   0.01267  Uiso   1.00
O111   O     0.23674   0.37056   0.11505   0.01267  Uiso   1.00
O112   O     0.64875   0.66681   0.79620   0.01267  Uiso   1.00
O113   O     0.14875   0.29620   0.16681   0.01267  Uiso   1.00
O114   O     0.70380   0.83319   0.14875   0.01267  Uiso   1.00
O115   O     0.75045   0.10716   0.74538   0.01267  Uiso   1.00
O116   O     0.12944   0.26326   0.61505   0.01267  Uiso   1.00
O117   O     0.68661   0.18046   0.17098   0.01267  Uiso   1.00
O118   O     0.81954   0.17098   0.31339   0.01267  Uiso   1.00
O119   O     0.77346   0.37442   0.76214   0.01267  Uiso   1.00
O120   O     0.62558   0.23786   0.77346   0.01267  Uiso   1.00
O121   O     0.37056   0.88495   0.76326   0.01267  Uiso   1.00
O122   O     0.24050   0.75950   0.75950   0.01267  Uiso   1.00
O123   O     0.12944   0.73674   0.38495   0.01267  Uiso   1.00
O124   O     0.26326   0.61505   0.12944   0.01267  Uiso   1.00
O125   O     0.18661   0.67098   0.68046   0.01267  Uiso   1.00
O126   O     0.81339   0.67098   0.31954   0.01267  Uiso   1.00
O127   O     0.32902   0.31954   0.18661   0.01267  Uiso   1.00
O128   O     0.31954   0.81339   0.67098   0.01267  Uiso   1.00
