data_IDIWOH04_clean
_audit_creation_date              2015-10-16
_audit_creation_method            'Materials Studio'
_symmetry_space_group_name_H-M    'P1'
_symmetry_Int_Tables_number       1
_symmetry_cell_setting            triclinic
loop_
_symmetry_equiv_pos_as_xyz
  x,y,z
_cell_length_a                    6.8499
_cell_length_b                    11.2601
_cell_length_c                    11.2601
_cell_angle_alpha                 76.2491
_cell_angle_beta                  72.3742
_cell_angle_gamma                 72.3742
loop_
_atom_site_label
_atom_site_type_symbol
_atom_site_fract_x
_atom_site_fract_y
_atom_site_fract_z
_atom_site_U_iso_or_equiv
_atom_site_adp_type
_atom_site_occupancy
C1     C     0.07173   0.86903   0.99682   0.01267  Uiso   1.00
C2     C     0.43832   0.50073   0.62886   0.01267  Uiso   1.00
C3     C     0.79850   0.06424   0.99182   0.01267  Uiso   1.00
C4     C     0.21161   0.93341   0.00605   0.01267  Uiso   1.00
C5     C     0.29850   0.49177   0.56428   0.01267  Uiso   1.00
C6     C     0.71161   0.50600   0.43346   0.01267  Uiso   1.00
C7     C     0.14540   0.06280   0.00765   0.01267  Uiso   1.00
C8     C     0.64540   0.50761   0.56284   0.01267  Uiso   1.00
C9     C     0.57173   0.49678   0.36907   0.01267  Uiso   1.00
C10    C     0.63958   0.49533   0.23057   0.01267  Uiso   1.00
C11    C     0.36494   0.48942   0.43536   0.01267  Uiso   1.00
C12    C     0.36469   0.50246   0.76730   0.01267  Uiso   1.00
C13    C     0.93832   0.12882   0.00078   0.01267  Uiso   1.00
C14    C     0.86495   0.93530   0.98946   0.01267  Uiso   1.00
C15    C     0.13958   0.73052   0.99538   0.01267  Uiso   1.00
C16    C     0.86469   0.26726   0.00250   0.01267  Uiso   1.00
H1     H     0.75141   0.51477   0.61456   0.01267  Uiso   1.00
H2     H     0.13862   0.48637   0.61717   0.01267  Uiso   1.00
H3     H     0.25142   0.11452   0.01480   0.01267  Uiso   1.00
H4     H     0.63862   0.11713   0.98641   0.01267  Uiso   1.00
H5     H     0.37126   0.88034   0.01194   0.01267  Uiso   1.00
H6     H     0.25905   0.48182   0.38384   0.01267  Uiso   1.00
H7     H     0.75905   0.88379   0.98187   0.01267  Uiso   1.00
H8     H     0.87126   0.51189   0.38039   0.01267  Uiso   1.00
O1     O     0.66987   0.31822   0.00540   0.01267  Uiso   1.00
O2     O     0.74422   0.55306   0.94470   0.01267  Uiso   1.00
O3     O     0.00268   0.67967   0.98615   0.01267  Uiso   1.00
O4     O     0.82812   0.50370   0.17262   0.01267  Uiso   1.00
O5     O     0.32813   0.67257   0.00374   0.01267  Uiso   1.00
O6     O     0.50268   0.48611   0.17971   0.01267  Uiso   1.00
O7     O     0.50063   0.50048   0.82500   0.01267  Uiso   1.00
O8     O     0.16987   0.50535   0.81826   0.01267  Uiso   1.00
O9     O     0.00063   0.32496   0.00052   0.01267  Uiso   1.00
O10    O     0.24422   0.44466   0.05310   0.01267  Uiso   1.00
V1     V     0.46957   0.48783   0.01007   0.01267  Uiso   1.00
V2     V     0.96957   0.51002   0.98788   0.01267  Uiso   1.00
